<?xml version="1.0" encoding="UTF-8"?>

<!-- generated on 09/01/20 14:43:00 by Eclipse SUMO netconvert Version 1.6.0
<configuration xmlns:xsi="http://www.w3.org/2001/XMLSchema-instance" xsi:noNamespaceSchemaLocation="http://sumo.dlr.de/xsd/netconvertConfiguration.xsd">

    <input>
        <node-files value="sim.nod.xml"/>
        <edge-files value="sim.edg.xml"/>
        <connection-files value="sim.con.xml"/>
    </input>

    <output>
        <output-file value="sim.net.xml"/>
    </output>

    <processing>
        <speed-in-kmh value="true"/>
        <lefthand value="true"/>
    </processing>

    <report>
        <aggregate-warnings value="5"/>
    </report>

</configuration>
-->

<net version="1.6" junctionCornerDetail="5" lefthand="true" limitTurnSpeed="5.50" xmlns:xsi="http://www.w3.org/2001/XMLSchema-instance" xsi:noNamespaceSchemaLocation="http://sumo.dlr.de/xsd/net_file.xsd">

    <location netOffset="800.00,800.00" convBoundary="0.00,-0.00,1600.00,1600.00" origBoundary="-800.00,-800.00,800.00,800.00" projParameter="!"/>

    <edge id=":0_1_0" function="internal">
        <lane id=":0_1_0_0" index="0" speed="3.65" length="4.67" shape="398.40,1600.00 399.20,1601.20 400.00,1601.60 400.80,1601.20 401.60,1600.00"/>
    </edge>
    <edge id=":0_2_0" function="internal">
        <lane id=":0_2_0_0" index="0" speed="3.65" length="4.67" shape="1198.40,1600.00 1199.20,1601.20 1200.00,1601.60 1200.80,1601.20 1201.60,1600.00"/>
    </edge>
    <edge id=":1_0_0" function="internal">
        <lane id=":1_0_0_0" index="0" speed="3.65" length="4.67" shape="0.00,1198.40 -1.20,1199.20 -1.60,1200.00 -1.20,1200.80 0.00,1201.60"/>
    </edge>
    <edge id=":1_1_0" function="internal">
        <lane id=":1_1_0_0" index="0" speed="3.86" length="9.03" shape="395.20,1189.60 394.85,1192.05 393.80,1193.80 392.05,1194.85 389.60,1195.20"/>
    </edge>
    <edge id=":1_1_1" function="internal">
        <lane id=":1_1_1_0" index="0" speed="3.86" length="20.80" shape="395.20,1189.60 395.20,1210.40"/>
    </edge>
    <edge id=":1_1_2" function="internal">
        <lane id=":1_1_2_0" index="0" speed="3.86" length="11.78" shape="398.40,1189.60 399.15,1194.85 401.40,1198.60 403.20,1199.68"/>
    </edge>
    <edge id=":1_1_12" function="internal">
        <lane id=":1_1_12_0" index="0" speed="3.86" length="7.58" shape="403.20,1199.68 405.15,1200.85 410.40,1201.60"/>
    </edge>
    <edge id=":1_1_3" function="internal">
        <lane id=":1_1_3_0" index="0" speed="3.86" length="9.03" shape="410.40,1195.20 407.95,1194.85 406.20,1193.80 405.15,1192.05 404.80,1189.60"/>
    </edge>
    <edge id=":1_1_4" function="internal">
        <lane id=":1_1_4_0" index="0" speed="3.86" length="20.80" shape="410.40,1195.20 389.60,1195.20"/>
    </edge>
    <edge id=":1_1_5" function="internal">
        <lane id=":1_1_5_0" index="0" speed="3.86" length="11.78" shape="410.40,1198.40 405.15,1199.15 401.40,1201.40 400.32,1203.20"/>
    </edge>
    <edge id=":1_1_13" function="internal">
        <lane id=":1_1_13_0" index="0" speed="3.86" length="7.58" shape="400.32,1203.20 399.15,1205.15 398.40,1210.40"/>
    </edge>
    <edge id=":1_1_6" function="internal">
        <lane id=":1_1_6_0" index="0" speed="3.86" length="9.03" shape="404.80,1210.40 405.15,1207.95 406.20,1206.20 407.95,1205.15 410.40,1204.80"/>
    </edge>
    <edge id=":1_1_7" function="internal">
        <lane id=":1_1_7_0" index="0" speed="3.86" length="20.80" shape="404.80,1210.40 404.80,1189.60"/>
    </edge>
    <edge id=":1_1_8" function="internal">
        <lane id=":1_1_8_0" index="0" speed="3.86" length="11.78" shape="401.60,1210.40 400.85,1205.15 398.60,1201.40 396.80,1200.32"/>
    </edge>
    <edge id=":1_1_14" function="internal">
        <lane id=":1_1_14_0" index="0" speed="3.86" length="7.58" shape="396.80,1200.32 394.85,1199.15 389.60,1198.40"/>
    </edge>
    <edge id=":1_1_9" function="internal">
        <lane id=":1_1_9_0" index="0" speed="3.86" length="9.03" shape="389.60,1204.80 392.05,1205.15 393.80,1206.20 394.85,1207.95 395.20,1210.40"/>
    </edge>
    <edge id=":1_1_10" function="internal">
        <lane id=":1_1_10_0" index="0" speed="3.86" length="20.80" shape="389.60,1204.80 410.40,1204.80"/>
    </edge>
    <edge id=":1_1_11" function="internal">
        <lane id=":1_1_11_0" index="0" speed="3.86" length="11.78" shape="389.60,1201.60 394.85,1200.85 398.60,1198.60 399.68,1196.80"/>
    </edge>
    <edge id=":1_1_15" function="internal">
        <lane id=":1_1_15_0" index="0" speed="3.86" length="7.58" shape="399.68,1196.80 400.85,1194.85 401.60,1189.60"/>
    </edge>
    <edge id=":1_2_0" function="internal">
        <lane id=":1_2_0_0" index="0" speed="3.86" length="9.03" shape="1195.20,1189.60 1194.85,1192.05 1193.80,1193.80 1192.05,1194.85 1189.60,1195.20"/>
    </edge>
    <edge id=":1_2_1" function="internal">
        <lane id=":1_2_1_0" index="0" speed="3.86" length="20.80" shape="1195.20,1189.60 1195.20,1210.40"/>
    </edge>
    <edge id=":1_2_2" function="internal">
        <lane id=":1_2_2_0" index="0" speed="3.86" length="11.78" shape="1198.40,1189.60 1199.15,1194.85 1201.40,1198.60 1203.20,1199.68"/>
    </edge>
    <edge id=":1_2_12" function="internal">
        <lane id=":1_2_12_0" index="0" speed="3.86" length="7.58" shape="1203.20,1199.68 1205.15,1200.85 1210.40,1201.60"/>
    </edge>
    <edge id=":1_2_3" function="internal">
        <lane id=":1_2_3_0" index="0" speed="3.86" length="9.03" shape="1210.40,1195.20 1207.95,1194.85 1206.20,1193.80 1205.15,1192.05 1204.80,1189.60"/>
    </edge>
    <edge id=":1_2_4" function="internal">
        <lane id=":1_2_4_0" index="0" speed="3.86" length="20.80" shape="1210.40,1195.20 1189.60,1195.20"/>
    </edge>
    <edge id=":1_2_5" function="internal">
        <lane id=":1_2_5_0" index="0" speed="3.86" length="11.78" shape="1210.40,1198.40 1205.15,1199.15 1201.40,1201.40 1200.32,1203.20"/>
    </edge>
    <edge id=":1_2_13" function="internal">
        <lane id=":1_2_13_0" index="0" speed="3.86" length="7.58" shape="1200.32,1203.20 1199.15,1205.15 1198.40,1210.40"/>
    </edge>
    <edge id=":1_2_6" function="internal">
        <lane id=":1_2_6_0" index="0" speed="3.86" length="9.03" shape="1204.80,1210.40 1205.15,1207.95 1206.20,1206.20 1207.95,1205.15 1210.40,1204.80"/>
    </edge>
    <edge id=":1_2_7" function="internal">
        <lane id=":1_2_7_0" index="0" speed="3.86" length="20.80" shape="1204.80,1210.40 1204.80,1189.60"/>
    </edge>
    <edge id=":1_2_8" function="internal">
        <lane id=":1_2_8_0" index="0" speed="3.86" length="11.78" shape="1201.60,1210.40 1200.85,1205.15 1198.60,1201.40 1196.80,1200.32"/>
    </edge>
    <edge id=":1_2_14" function="internal">
        <lane id=":1_2_14_0" index="0" speed="3.86" length="7.58" shape="1196.80,1200.32 1194.85,1199.15 1189.60,1198.40"/>
    </edge>
    <edge id=":1_2_9" function="internal">
        <lane id=":1_2_9_0" index="0" speed="3.86" length="9.03" shape="1189.60,1204.80 1192.05,1205.15 1193.80,1206.20 1194.85,1207.95 1195.20,1210.40"/>
    </edge>
    <edge id=":1_2_10" function="internal">
        <lane id=":1_2_10_0" index="0" speed="3.86" length="20.80" shape="1189.60,1204.80 1210.40,1204.80"/>
    </edge>
    <edge id=":1_2_11" function="internal">
        <lane id=":1_2_11_0" index="0" speed="3.86" length="11.78" shape="1189.60,1201.60 1194.85,1200.85 1198.60,1198.60 1199.68,1196.80"/>
    </edge>
    <edge id=":1_2_15" function="internal">
        <lane id=":1_2_15_0" index="0" speed="3.86" length="7.58" shape="1199.68,1196.80 1200.85,1194.85 1201.60,1189.60"/>
    </edge>
    <edge id=":1_3_0" function="internal">
        <lane id=":1_3_0_0" index="0" speed="3.65" length="4.67" shape="1600.00,1201.60 1601.20,1200.80 1601.60,1200.00 1601.20,1199.20 1600.00,1198.40"/>
    </edge>
    <edge id=":2_0_0" function="internal">
        <lane id=":2_0_0_0" index="0" speed="3.65" length="4.67" shape="0.00,398.40 -1.20,399.20 -1.60,400.00 -1.20,400.80 0.00,401.60"/>
    </edge>
    <edge id=":2_1_0" function="internal">
        <lane id=":2_1_0_0" index="0" speed="3.86" length="9.03" shape="395.20,389.60 394.85,392.05 393.80,393.80 392.05,394.85 389.60,395.20"/>
    </edge>
    <edge id=":2_1_1" function="internal">
        <lane id=":2_1_1_0" index="0" speed="3.86" length="20.80" shape="395.20,389.60 395.20,410.40"/>
    </edge>
    <edge id=":2_1_2" function="internal">
        <lane id=":2_1_2_0" index="0" speed="3.86" length="11.78" shape="398.40,389.60 399.15,394.85 401.40,398.60 403.20,399.68"/>
    </edge>
    <edge id=":2_1_12" function="internal">
        <lane id=":2_1_12_0" index="0" speed="3.86" length="7.58" shape="403.20,399.68 405.15,400.85 410.40,401.60"/>
    </edge>
    <edge id=":2_1_3" function="internal">
        <lane id=":2_1_3_0" index="0" speed="3.86" length="9.03" shape="410.40,395.20 407.95,394.85 406.20,393.80 405.15,392.05 404.80,389.60"/>
    </edge>
    <edge id=":2_1_4" function="internal">
        <lane id=":2_1_4_0" index="0" speed="3.86" length="20.80" shape="410.40,395.20 389.60,395.20"/>
    </edge>
    <edge id=":2_1_5" function="internal">
        <lane id=":2_1_5_0" index="0" speed="3.86" length="11.78" shape="410.40,398.40 405.15,399.15 401.40,401.40 400.32,403.20"/>
    </edge>
    <edge id=":2_1_13" function="internal">
        <lane id=":2_1_13_0" index="0" speed="3.86" length="7.58" shape="400.32,403.20 399.15,405.15 398.40,410.40"/>
    </edge>
    <edge id=":2_1_6" function="internal">
        <lane id=":2_1_6_0" index="0" speed="3.86" length="9.03" shape="404.80,410.40 405.15,407.95 406.20,406.20 407.95,405.15 410.40,404.80"/>
    </edge>
    <edge id=":2_1_7" function="internal">
        <lane id=":2_1_7_0" index="0" speed="3.86" length="20.80" shape="404.80,410.40 404.80,389.60"/>
    </edge>
    <edge id=":2_1_8" function="internal">
        <lane id=":2_1_8_0" index="0" speed="3.86" length="11.78" shape="401.60,410.40 400.85,405.15 398.60,401.40 396.80,400.32"/>
    </edge>
    <edge id=":2_1_14" function="internal">
        <lane id=":2_1_14_0" index="0" speed="3.86" length="7.58" shape="396.80,400.32 394.85,399.15 389.60,398.40"/>
    </edge>
    <edge id=":2_1_9" function="internal">
        <lane id=":2_1_9_0" index="0" speed="3.86" length="9.03" shape="389.60,404.80 392.05,405.15 393.80,406.20 394.85,407.95 395.20,410.40"/>
    </edge>
    <edge id=":2_1_10" function="internal">
        <lane id=":2_1_10_0" index="0" speed="3.86" length="20.80" shape="389.60,404.80 410.40,404.80"/>
    </edge>
    <edge id=":2_1_11" function="internal">
        <lane id=":2_1_11_0" index="0" speed="3.86" length="11.78" shape="389.60,401.60 394.85,400.85 398.60,398.60 399.68,396.80"/>
    </edge>
    <edge id=":2_1_15" function="internal">
        <lane id=":2_1_15_0" index="0" speed="3.86" length="7.58" shape="399.68,396.80 400.85,394.85 401.60,389.60"/>
    </edge>
    <edge id=":2_2_0" function="internal">
        <lane id=":2_2_0_0" index="0" speed="3.86" length="9.03" shape="1195.20,389.60 1194.85,392.05 1193.80,393.80 1192.05,394.85 1189.60,395.20"/>
    </edge>
    <edge id=":2_2_1" function="internal">
        <lane id=":2_2_1_0" index="0" speed="3.86" length="20.80" shape="1195.20,389.60 1195.20,410.40"/>
    </edge>
    <edge id=":2_2_2" function="internal">
        <lane id=":2_2_2_0" index="0" speed="3.86" length="11.78" shape="1198.40,389.60 1199.15,394.85 1201.40,398.60 1203.20,399.68"/>
    </edge>
    <edge id=":2_2_12" function="internal">
        <lane id=":2_2_12_0" index="0" speed="3.86" length="7.58" shape="1203.20,399.68 1205.15,400.85 1210.40,401.60"/>
    </edge>
    <edge id=":2_2_3" function="internal">
        <lane id=":2_2_3_0" index="0" speed="3.86" length="9.03" shape="1210.40,395.20 1207.95,394.85 1206.20,393.80 1205.15,392.05 1204.80,389.60"/>
    </edge>
    <edge id=":2_2_4" function="internal">
        <lane id=":2_2_4_0" index="0" speed="3.86" length="20.80" shape="1210.40,395.20 1189.60,395.20"/>
    </edge>
    <edge id=":2_2_5" function="internal">
        <lane id=":2_2_5_0" index="0" speed="3.86" length="11.78" shape="1210.40,398.40 1205.15,399.15 1201.40,401.40 1200.32,403.20"/>
    </edge>
    <edge id=":2_2_13" function="internal">
        <lane id=":2_2_13_0" index="0" speed="3.86" length="7.58" shape="1200.32,403.20 1199.15,405.15 1198.40,410.40"/>
    </edge>
    <edge id=":2_2_6" function="internal">
        <lane id=":2_2_6_0" index="0" speed="3.86" length="9.03" shape="1204.80,410.40 1205.15,407.95 1206.20,406.20 1207.95,405.15 1210.40,404.80"/>
    </edge>
    <edge id=":2_2_7" function="internal">
        <lane id=":2_2_7_0" index="0" speed="3.86" length="20.80" shape="1204.80,410.40 1204.80,389.60"/>
    </edge>
    <edge id=":2_2_8" function="internal">
        <lane id=":2_2_8_0" index="0" speed="3.86" length="11.78" shape="1201.60,410.40 1200.85,405.15 1198.60,401.40 1196.80,400.32"/>
    </edge>
    <edge id=":2_2_14" function="internal">
        <lane id=":2_2_14_0" index="0" speed="3.86" length="7.58" shape="1196.80,400.32 1194.85,399.15 1189.60,398.40"/>
    </edge>
    <edge id=":2_2_9" function="internal">
        <lane id=":2_2_9_0" index="0" speed="3.86" length="9.03" shape="1189.60,404.80 1192.05,405.15 1193.80,406.20 1194.85,407.95 1195.20,410.40"/>
    </edge>
    <edge id=":2_2_10" function="internal">
        <lane id=":2_2_10_0" index="0" speed="3.86" length="20.80" shape="1189.60,404.80 1210.40,404.80"/>
    </edge>
    <edge id=":2_2_11" function="internal">
        <lane id=":2_2_11_0" index="0" speed="3.86" length="11.78" shape="1189.60,401.60 1194.85,400.85 1198.60,398.60 1199.68,396.80"/>
    </edge>
    <edge id=":2_2_15" function="internal">
        <lane id=":2_2_15_0" index="0" speed="3.86" length="7.58" shape="1199.68,396.80 1200.85,394.85 1201.60,389.60"/>
    </edge>
    <edge id=":2_3_0" function="internal">
        <lane id=":2_3_0_0" index="0" speed="3.65" length="4.67" shape="1600.00,401.60 1601.20,400.80 1601.60,400.00 1601.20,399.20 1600.00,398.40"/>
    </edge>
    <edge id=":3_1_0" function="internal">
        <lane id=":3_1_0_0" index="0" speed="3.65" length="4.67" shape="401.60,-0.00 400.80,-1.20 400.00,-1.60 399.20,-1.20 398.40,-0.00"/>
    </edge>
    <edge id=":3_2_0" function="internal">
        <lane id=":3_2_0_0" index="0" speed="3.65" length="4.67" shape="1201.60,-0.00 1200.80,-1.20 1200.00,-1.60 1199.20,-1.20 1198.40,-0.00"/>
    </edge>

    <edge id="0_1to1_1" from="0_1" to="1_1" priority="-1">
        <lane id="0_1to1_1_0" index="0" speed="3.86" length="389.60" shape="404.80,1600.00 404.80,1210.40"/>
        <lane id="0_1to1_1_1" index="1" speed="3.86" length="389.60" shape="401.60,1600.00 401.60,1210.40"/>
    </edge>
    <edge id="0_2to1_2" from="0_2" to="1_2" priority="-1">
        <lane id="0_2to1_2_0" index="0" speed="3.86" length="389.60" shape="1204.80,1600.00 1204.80,1210.40"/>
        <lane id="0_2to1_2_1" index="1" speed="3.86" length="389.60" shape="1201.60,1600.00 1201.60,1210.40"/>
    </edge>
    <edge id="1_0to1_1" from="1_0" to="1_1" priority="-1">
        <lane id="1_0to1_1_0" index="0" speed="3.86" length="389.60" shape="0.00,1204.80 389.60,1204.80"/>
        <lane id="1_0to1_1_1" index="1" speed="3.86" length="389.60" shape="0.00,1201.60 389.60,1201.60"/>
    </edge>
    <edge id="1_1to0_1" from="1_1" to="0_1" priority="-1">
        <lane id="1_1to0_1_0" index="0" speed="3.86" length="389.60" shape="395.20,1210.40 395.20,1600.00"/>
        <lane id="1_1to0_1_1" index="1" speed="3.86" length="389.60" shape="398.40,1210.40 398.40,1600.00"/>
    </edge>
    <edge id="1_1to1_0" from="1_1" to="1_0" priority="-1">
        <lane id="1_1to1_0_0" index="0" speed="3.86" length="389.60" shape="389.60,1195.20 0.00,1195.20"/>
        <lane id="1_1to1_0_1" index="1" speed="3.86" length="389.60" shape="389.60,1198.40 0.00,1198.40"/>
    </edge>
    <edge id="1_1to1_2" from="1_1" to="1_2" priority="-1">
        <lane id="1_1to1_2_0" index="0" speed="3.86" length="779.20" shape="410.40,1204.80 1189.60,1204.80"/>
        <lane id="1_1to1_2_1" index="1" speed="3.86" length="779.20" shape="410.40,1201.60 1189.60,1201.60"/>
    </edge>
    <edge id="1_1to2_1" from="1_1" to="2_1" priority="-1">
        <lane id="1_1to2_1_0" index="0" speed="3.86" length="779.20" shape="404.80,1189.60 404.80,410.40"/>
        <lane id="1_1to2_1_1" index="1" speed="3.86" length="779.20" shape="401.60,1189.60 401.60,410.40"/>
    </edge>
    <edge id="1_2to0_2" from="1_2" to="0_2" priority="-1">
        <lane id="1_2to0_2_0" index="0" speed="3.86" length="389.60" shape="1195.20,1210.40 1195.20,1600.00"/>
        <lane id="1_2to0_2_1" index="1" speed="3.86" length="389.60" shape="1198.40,1210.40 1198.40,1600.00"/>
    </edge>
    <edge id="1_2to1_1" from="1_2" to="1_1" priority="-1">
        <lane id="1_2to1_1_0" index="0" speed="3.86" length="779.20" shape="1189.60,1195.20 410.40,1195.20"/>
        <lane id="1_2to1_1_1" index="1" speed="3.86" length="779.20" shape="1189.60,1198.40 410.40,1198.40"/>
    </edge>
    <edge id="1_2to1_3" from="1_2" to="1_3" priority="-1">
        <lane id="1_2to1_3_0" index="0" speed="3.86" length="389.60" shape="1210.40,1204.80 1600.00,1204.80"/>
        <lane id="1_2to1_3_1" index="1" speed="3.86" length="389.60" shape="1210.40,1201.60 1600.00,1201.60"/>
    </edge>
    <edge id="1_2to2_2" from="1_2" to="2_2" priority="-1">
        <lane id="1_2to2_2_0" index="0" speed="3.86" length="779.20" shape="1204.80,1189.60 1204.80,410.40"/>
        <lane id="1_2to2_2_1" index="1" speed="3.86" length="779.20" shape="1201.60,1189.60 1201.60,410.40"/>
    </edge>
    <edge id="1_3to1_2" from="1_3" to="1_2" priority="-1">
        <lane id="1_3to1_2_0" index="0" speed="3.86" length="389.60" shape="1600.00,1195.20 1210.40,1195.20"/>
        <lane id="1_3to1_2_1" index="1" speed="3.86" length="389.60" shape="1600.00,1198.40 1210.40,1198.40"/>
    </edge>
    <edge id="2_0to2_1" from="2_0" to="2_1" priority="-1">
        <lane id="2_0to2_1_0" index="0" speed="3.86" length="389.60" shape="0.00,404.80 389.60,404.80"/>
        <lane id="2_0to2_1_1" index="1" speed="3.86" length="389.60" shape="0.00,401.60 389.60,401.60"/>
    </edge>
    <edge id="2_1to1_1" from="2_1" to="1_1" priority="-1">
        <lane id="2_1to1_1_0" index="0" speed="3.86" length="779.20" shape="395.20,410.40 395.20,1189.60"/>
        <lane id="2_1to1_1_1" index="1" speed="3.86" length="779.20" shape="398.40,410.40 398.40,1189.60"/>
    </edge>
    <edge id="2_1to2_0" from="2_1" to="2_0" priority="-1">
        <lane id="2_1to2_0_0" index="0" speed="3.86" length="389.60" shape="389.60,395.20 0.00,395.20"/>
        <lane id="2_1to2_0_1" index="1" speed="3.86" length="389.60" shape="389.60,398.40 0.00,398.40"/>
    </edge>
    <edge id="2_1to2_2" from="2_1" to="2_2" priority="-1">
        <lane id="2_1to2_2_0" index="0" speed="3.86" length="779.20" shape="410.40,404.80 1189.60,404.80"/>
        <lane id="2_1to2_2_1" index="1" speed="3.86" length="779.20" shape="410.40,401.60 1189.60,401.60"/>
    </edge>
    <edge id="2_1to3_1" from="2_1" to="3_1" priority="-1">
        <lane id="2_1to3_1_0" index="0" speed="3.86" length="389.60" shape="404.80,389.60 404.80,-0.00"/>
        <lane id="2_1to3_1_1" index="1" speed="3.86" length="389.60" shape="401.60,389.60 401.60,-0.00"/>
    </edge>
    <edge id="2_2to1_2" from="2_2" to="1_2" priority="-1">
        <lane id="2_2to1_2_0" index="0" speed="3.86" length="779.20" shape="1195.20,410.40 1195.20,1189.60"/>
        <lane id="2_2to1_2_1" index="1" speed="3.86" length="779.20" shape="1198.40,410.40 1198.40,1189.60"/>
    </edge>
    <edge id="2_2to2_1" from="2_2" to="2_1" priority="-1">
        <lane id="2_2to2_1_0" index="0" speed="3.86" length="779.20" shape="1189.60,395.20 410.40,395.20"/>
        <lane id="2_2to2_1_1" index="1" speed="3.86" length="779.20" shape="1189.60,398.40 410.40,398.40"/>
    </edge>
    <edge id="2_2to2_3" from="2_2" to="2_3" priority="-1">
        <lane id="2_2to2_3_0" index="0" speed="3.86" length="389.60" shape="1210.40,404.80 1600.00,404.80"/>
        <lane id="2_2to2_3_1" index="1" speed="3.86" length="389.60" shape="1210.40,401.60 1600.00,401.60"/>
    </edge>
    <edge id="2_2to3_2" from="2_2" to="3_2" priority="-1">
        <lane id="2_2to3_2_0" index="0" speed="3.86" length="389.60" shape="1204.80,389.60 1204.80,-0.00"/>
        <lane id="2_2to3_2_1" index="1" speed="3.86" length="389.60" shape="1201.60,389.60 1201.60,-0.00"/>
    </edge>
    <edge id="2_3to2_2" from="2_3" to="2_2" priority="-1">
        <lane id="2_3to2_2_0" index="0" speed="3.86" length="389.60" shape="1600.00,395.20 1210.40,395.20"/>
        <lane id="2_3to2_2_1" index="1" speed="3.86" length="389.60" shape="1600.00,398.40 1210.40,398.40"/>
    </edge>
    <edge id="3_1to2_1" from="3_1" to="2_1" priority="-1">
        <lane id="3_1to2_1_0" index="0" speed="3.86" length="389.60" shape="395.20,-0.00 395.20,389.60"/>
        <lane id="3_1to2_1_1" index="1" speed="3.86" length="389.60" shape="398.40,-0.00 398.40,389.60"/>
    </edge>
    <edge id="3_2to2_2" from="3_2" to="2_2" priority="-1">
        <lane id="3_2to2_2_0" index="0" speed="3.86" length="389.60" shape="1195.20,-0.00 1195.20,389.60"/>
        <lane id="3_2to2_2_1" index="1" speed="3.86" length="389.60" shape="1198.40,-0.00 1198.40,389.60"/>
    </edge>

    <tlLogic id="1_1" type="static" programID="0" offset="0">
        <phase duration="33" state="GGgrrrGGgrrr"/>
        <phase duration="3"  state="yygrrryygrrr"/>
        <phase duration="6"  state="rrGrrrrrGrrr"/>
        <phase duration="3"  state="rryrrrrryrrr"/>
        <phase duration="33" state="rrrGGgrrrGGg"/>
        <phase duration="3"  state="rrryygrrryyg"/>
        <phase duration="6"  state="rrrrrGrrrrrG"/>
        <phase duration="3"  state="rrrrryrrrrry"/>
    </tlLogic>
    <tlLogic id="1_2" type="static" programID="0" offset="0">
        <phase duration="33" state="GGgrrrGGgrrr"/>
        <phase duration="3"  state="yygrrryygrrr"/>
        <phase duration="6"  state="rrGrrrrrGrrr"/>
        <phase duration="3"  state="rryrrrrryrrr"/>
        <phase duration="33" state="rrrGGgrrrGGg"/>
        <phase duration="3"  state="rrryygrrryyg"/>
        <phase duration="6"  state="rrrrrGrrrrrG"/>
        <phase duration="3"  state="rrrrryrrrrry"/>
    </tlLogic>
    <tlLogic id="2_1" type="static" programID="0" offset="0">
        <phase duration="33" state="GGgrrrGGgrrr"/>
        <phase duration="3"  state="yygrrryygrrr"/>
        <phase duration="6"  state="rrGrrrrrGrrr"/>
        <phase duration="3"  state="rryrrrrryrrr"/>
        <phase duration="33" state="rrrGGgrrrGGg"/>
        <phase duration="3"  state="rrryygrrryyg"/>
        <phase duration="6"  state="rrrrrGrrrrrG"/>
        <phase duration="3"  state="rrrrryrrrrry"/>
    </tlLogic>
    <tlLogic id="2_2" type="static" programID="0" offset="0">
        <phase duration="33" state="GGgrrrGGgrrr"/>
        <phase duration="3"  state="yygrrryygrrr"/>
        <phase duration="6"  state="rrGrrrrrGrrr"/>
        <phase duration="3"  state="rryrrrrryrrr"/>
        <phase duration="33" state="rrrGGgrrrGGg"/>
        <phase duration="3"  state="rrryygrrryyg"/>
        <phase duration="6"  state="rrrrrGrrrrrG"/>
        <phase duration="3"  state="rrrrryrrrrry"/>
    </tlLogic>

    <junction id="0_1" type="priority" x="400.00" y="1600.00" incLanes="1_1to0_1_0 1_1to0_1_1" intLanes=":0_1_0_0" shape="400.00,1600.00 393.60,1600.00 400.00,1600.00">
        <request index="0" response="0" foes="0" cont="0"/>
    </junction>
    <junction id="0_2" type="priority" x="1200.00" y="1600.00" incLanes="1_2to0_2_0 1_2to0_2_1" intLanes=":0_2_0_0" shape="1200.00,1600.00 1193.60,1600.00 1200.00,1600.00">
        <request index="0" response="0" foes="0" cont="0"/>
    </junction>
    <junction id="1_0" type="priority" x="0.00" y="1200.00" incLanes="1_1to1_0_0 1_1to1_0_1" intLanes=":1_0_0_0" shape="0.00,1200.00 0.00,1193.60 0.00,1200.00">
        <request index="0" response="0" foes="0" cont="0"/>
    </junction>
    <junction id="1_1" type="traffic_light" x="400.00" y="1200.00" incLanes="2_1to1_1_0 2_1to1_1_1 1_2to1_1_0 1_2to1_1_1 0_1to1_1_0 0_1to1_1_1 1_0to1_1_0 1_0to1_1_1" intLanes=":1_1_0_0 :1_1_1_0 :1_1_12_0 :1_1_3_0 :1_1_4_0 :1_1_13_0 :1_1_6_0 :1_1_7_0 :1_1_14_0 :1_1_9_0 :1_1_10_0 :1_1_15_0" shape="393.60,1189.60 406.40,1189.60 406.84,1191.82 407.40,1192.60 408.18,1193.16 409.18,1193.49 410.40,1193.60 410.40,1206.40 408.18,1206.84 407.40,1207.40 406.84,1208.18 406.51,1209.18 406.40,1210.40 393.60,1210.40 393.16,1208.18 392.60,1207.40 391.82,1206.84 390.82,1206.51 389.60,1206.40 389.60,1193.60 391.82,1193.16 392.60,1192.60 393.16,1191.82 393.49,1190.82">
        <request index="0"  response="000000000000" foes="000000010000" cont="0"/>
        <request index="1"  response="100000000000" foes="111100010000" cont="0"/>
        <request index="2"  response="100010100000" foes="100010110000" cont="1"/>
        <request index="3"  response="000010000000" foes="000010000000" cont="0"/>
        <request index="4"  response="000010000111" foes="100010000111" cont="0"/>
        <request index="5"  response="010110000100" foes="010110000100" cont="1"/>
        <request index="6"  response="000000000000" foes="010000000000" cont="0"/>
        <request index="7"  response="000000100000" foes="010000111100" cont="0"/>
        <request index="8"  response="100000100010" foes="110000100010" cont="1"/>
        <request index="9"  response="000000000010" foes="000000000010" cont="0"/>
        <request index="10" response="000111000010" foes="000111100010" cont="0"/>
        <request index="11" response="000100010110" foes="000100010110" cont="1"/>
    </junction>
    <junction id="1_2" type="traffic_light" x="1200.00" y="1200.00" incLanes="2_2to1_2_0 2_2to1_2_1 1_3to1_2_0 1_3to1_2_1 0_2to1_2_0 0_2to1_2_1 1_1to1_2_0 1_1to1_2_1" intLanes=":1_2_0_0 :1_2_1_0 :1_2_12_0 :1_2_3_0 :1_2_4_0 :1_2_13_0 :1_2_6_0 :1_2_7_0 :1_2_14_0 :1_2_9_0 :1_2_10_0 :1_2_15_0" shape="1193.60,1189.60 1206.40,1189.60 1206.84,1191.82 1207.40,1192.60 1208.18,1193.16 1209.18,1193.49 1210.40,1193.60 1210.40,1206.40 1208.18,1206.84 1207.40,1207.40 1206.84,1208.18 1206.51,1209.18 1206.40,1210.40 1193.60,1210.40 1193.16,1208.18 1192.60,1207.40 1191.82,1206.84 1190.82,1206.51 1189.60,1206.40 1189.60,1193.60 1191.82,1193.16 1192.60,1192.60 1193.16,1191.82 1193.49,1190.82">
        <request index="0"  response="000000000000" foes="000000010000" cont="0"/>
        <request index="1"  response="100000000000" foes="111100010000" cont="0"/>
        <request index="2"  response="100010100000" foes="100010110000" cont="1"/>
        <request index="3"  response="000010000000" foes="000010000000" cont="0"/>
        <request index="4"  response="000010000111" foes="100010000111" cont="0"/>
        <request index="5"  response="010110000100" foes="010110000100" cont="1"/>
        <request index="6"  response="000000000000" foes="010000000000" cont="0"/>
        <request index="7"  response="000000100000" foes="010000111100" cont="0"/>
        <request index="8"  response="100000100010" foes="110000100010" cont="1"/>
        <request index="9"  response="000000000010" foes="000000000010" cont="0"/>
        <request index="10" response="000111000010" foes="000111100010" cont="0"/>
        <request index="11" response="000100010110" foes="000100010110" cont="1"/>
    </junction>
    <junction id="1_3" type="priority" x="1600.00" y="1200.00" incLanes="1_2to1_3_0 1_2to1_3_1" intLanes=":1_3_0_0" shape="1600.00,1200.00 1600.00,1206.40 1600.00,1200.00">
        <request index="0" response="0" foes="0" cont="0"/>
    </junction>
    <junction id="2_0" type="priority" x="0.00" y="400.00" incLanes="2_1to2_0_0 2_1to2_0_1" intLanes=":2_0_0_0" shape="0.00,400.00 0.00,393.60 0.00,400.00">
        <request index="0" response="0" foes="0" cont="0"/>
    </junction>
    <junction id="2_1" type="traffic_light" x="400.00" y="400.00" incLanes="3_1to2_1_0 3_1to2_1_1 2_2to2_1_0 2_2to2_1_1 1_1to2_1_0 1_1to2_1_1 2_0to2_1_0 2_0to2_1_1" intLanes=":2_1_0_0 :2_1_1_0 :2_1_12_0 :2_1_3_0 :2_1_4_0 :2_1_13_0 :2_1_6_0 :2_1_7_0 :2_1_14_0 :2_1_9_0 :2_1_10_0 :2_1_15_0" shape="393.60,389.60 406.40,389.60 406.84,391.82 407.40,392.60 408.18,393.16 409.18,393.49 410.40,393.60 410.40,406.40 408.18,406.84 407.40,407.40 406.84,408.18 406.51,409.18 406.40,410.40 393.60,410.40 393.16,408.18 392.60,407.40 391.82,406.84 390.82,406.51 389.60,406.40 389.60,393.60 391.82,393.16 392.60,392.60 393.16,391.82 393.49,390.82">
        <request index="0"  response="000000000000" foes="000000010000" cont="0"/>
        <request index="1"  response="100000000000" foes="111100010000" cont="0"/>
        <request index="2"  response="100010100000" foes="100010110000" cont="1"/>
        <request index="3"  response="000010000000" foes="000010000000" cont="0"/>
        <request index="4"  response="000010000111" foes="100010000111" cont="0"/>
        <request index="5"  response="010110000100" foes="010110000100" cont="1"/>
        <request index="6"  response="000000000000" foes="010000000000" cont="0"/>
        <request index="7"  response="000000100000" foes="010000111100" cont="0"/>
        <request index="8"  response="100000100010" foes="110000100010" cont="1"/>
        <request index="9"  response="000000000010" foes="000000000010" cont="0"/>
        <request index="10" response="000111000010" foes="000111100010" cont="0"/>
        <request index="11" response="000100010110" foes="000100010110" cont="1"/>
    </junction>