<edges>
    <edge from="0_1" id="0_1to1_1" to="1_1" numLanes="2"/>
    <edge from="1_1" id="1_1to2_1" to="2_1" numLanes="2"/>
    <edge from="2_1" id="2_1to3_1" to="3_1" numLanes="2"/>

    <edge from="0_2" id="0_2to1_2" to="1_2" numLanes="2"/>
    <edge from="1_2" id="1_2to2_2" to="2_2" numLanes="2"/>
    <edge from="2_2" id="2_2to3_2" to="3_2" numLanes="2"/>

    <edge from="1_0" id="1_0to1_1" to="1_1" numLanes="2"/>
    <edge from="1_1" id="1_1to1_2" to="1_2" numLanes="2"/>
    <edge from="1_2" id="1_2to1_3" to="1_3" numLanes="2"/>
    
    <edge from="2_0" id="2_0to2_1" to="2_1" numLanes="2"/>
    <edge from="2_1" id="2_1to2_2" to="2_2" numLanes="2"/>
    <edge from="2_2" id="2_2to2_3" to="2_3" numLanes="2"/>

    <edge from="3_1" id="3_1to2_1" to="2_1" numLanes="2"/>
    <edge from="2_1" id="2_1to1_1" to="1_1" numLanes="2"/>
    <edge from="1_1" id="1_1to0_1" to="0_1" numLanes="2"/>

    <edge from="3_2" id="3_2to2_2" to="2_2" numLanes="2"/>
    <edge from="2_2" id="2_2to1_2" to="1_2" numLanes="2"/>
    <edge from="1_2" id="1_2to0_2" to="0_2" numLanes="2"/>

    <edge from="1_3" id="1_3to1_2" to="1_2" numLanes="2"/>
    <edge from="1_2" id="1_2to1_1" to="1_1" numLanes="2"/>
    <edge from="1_1" id="1_1to1_0" to="1_0" numLanes="2"/>
    
    <edge from="2_3" id="2_3to2_2" to="2_2" numLanes="2"/>
    <edge from="2_2" id="2_2to2_1" to="2_1" numLanes="2"/>
    <edge from="2_1" id="2_1to2_0" to="2_0" numLanes="2"/>

</edges>