<configuration>
    <input>
        <net-file value="sim.net.xml"/>
        <route-files value="sim_flow2.rou.xml"/>
    </input>
    <time>
        <begin value="0"/>
        <end value="86333"/>
    </time>
</configuration>