<?xml version="1.0" encoding="UTF-8"?>

<!-- generated on 09/06/20 16:49:34 by Eclipse SUMO duarouter Version 1.6.0
<configuration xmlns:xsi="http://www.w3.org/2001/XMLSchema-instance" xsi:noNamespaceSchemaLocation="http://sumo.dlr.de/xsd/duarouterConfiguration.xsd">

    <input>
        <net-file value="sim.net.xml"/>
        <route-files value="sim_stat.trips.xml"/>
    </input>

    <output>
        <output-file value="sim_stat.rou.xml"/>
        <alternatives-output value="sim_stat.rou.alt.xml"/>
    </output>

</configuration>
-->

<routes xmlns:xsi="http://www.w3.org/2001/XMLSchema-instance" xsi:noNamespaceSchemaLocation="http://sumo.dlr.de/xsd/routes_file.xsd">
    <vType id="bus" vClass="bus" color="green"/>
    <vehicle id="bl101b1:1" type="bus" depart="100.00" departPos="80.00" arrivalPos="700.00" arrivalSpeed="0.00">
        <route edges="1_1to1_2 1_2to2_2 2_2to2_1 2_1to1_1"/>
    </vehicle>
    <vehicle id="bl101b2:9" type="bus" depart="100.00" departPos="640.00" arrivalPos="640.00" arrivalSpeed="0.00">
        <route edges="1_1to1_2"/>
    </vehicle>
    <vType id="random" vClass="passenger" color="blue"/>
    <vehicle id="randUni315:1" type="random" depart="163.00" departPos="114.94" arrivalPos="650.37" arrivalSpeed="0.00">
        <route edges="2_1to3_1 3_1to2_1 2_1to2_2 2_2to1_2"/>
    </vehicle>
    <vehicle id="randUni80:1" type="random" depart="172.00" departPos="610.08" arrivalPos="774.19" arrivalSpeed="0.00">
        <route edges="1_2to2_2 2_2to2_3 2_3to2_2 2_2to1_2 1_2to1_1 1_1to2_1"/>
    </vehicle>
    <vehicle id="bl101b3:1" type="bus" depart="400.00" departPos="80.00" arrivalPos="700.00" arrivalSpeed="0.00">
        <route edges="1_1to1_2 1_2to2_2 2_2to2_1 2_1to1_1"/>
    </vehicle>
    <vehicle id="bl101b4:9" type="bus" depart="400.00" departPos="640.00" arrivalPos="640.00" arrivalSpeed="0.00">
        <route edges="1_1to1_2"/>
    </vehicle>
    <vType id="default" vClass="passenger" color="red"/>
    <vehicle id="h91c1:1" type="default" depart="596.00" departPos="601.28" arrivalPos="601.28" arrivalSpeed="0.00">
        <route edges="1_1to2_1 2_1to2_0 2_0to2_1 2_1to1_1 1_1to1_2 1_2to0_2 0_2to1_2 1_2to1_1 1_1to2_1"/>
    </vehicle>
    <vehicle id="bl101b5:1" type="bus" depart="700.00" departPos="80.00" arrivalPos="700.00" arrivalSpeed="0.00">
        <route edges="1_1to1_2 1_2to2_2 2_2to2_1 2_1to1_1"/>
    </vehicle>
    <vehicle id="bl101b6:9" type="bus" depart="700.00" departPos="640.00" arrivalPos="640.00" arrivalSpeed="0.00">
        <route edges="1_1to1_2"/>
    </vehicle>
    <vehicle id="h197c1:1" type="default" depart="728.00" departPos="335.15" arrivalPos="335.15" arrivalSpeed="0.00">
        <route edges="2_1to1_1 1_1to1_2 1_2to2_2 2_2to2_1 2_1to1_1"/>
    </vehicle>
    <vehicle id="randUni83:1" type="random" depart="806.00" departPos="320.30" arrivalPos="281.99" arrivalSpeed="0.00">
        <route edges="1_2to1_3 1_3to1_2 1_2to2_2 2_2to2_1 2_1to3_1 3_1to2_1"/>
    </vehicle>
    <vehicle id="h179c1:1" type="default" depart="818.00" departPos="158.05" arrivalPos="158.05" arrivalSpeed="0.00">
        <route edges="2_1to1_1 1_1to1_2 1_2to2_2 2_2to2_1 2_1to1_1"/>
    </vehicle>
    <vehicle id="h35c1:1" type="default" depart="871.00" departPos="693.37" arrivalPos="693.37" arrivalSpeed="0.00">
        <route edges="1_1to2_1 2_1to2_0 2_0to2_1 2_1to1_1 1_1to1_2 1_2to0_2 0_2to1_2 1_2to1_1 1_1to2_1"/>
    </vehicle>
    <vehicle id="randUni95:1" type="random" depart="898.00" departPos="333.80" arrivalPos="65.20" arrivalSpeed="0.00">
        <route edges="2_2to2_1 2_1to1_1 1_1to1_0 1_0to1_1"/>
    </vehicle>
    <vehicle id="h170c1:1" type="default" depart="902.00" departPos="310.12" arrivalPos="310.12" arrivalSpeed="0.00">
        <route edges="2_1to1_1 1_1to1_2 1_2to2_2 2_2to2_1 2_1to1_1"/>
    </vehicle>
    <vehicle id="h45c1:1" type="default" depart="935.00" departPos="535.26" arrivalPos="535.26" arrivalSpeed="0.00">
        <route edges="1_1to2_1 2_1to2_0 2_0to2_1 2_1to1_1 1_1to1_2 1_2to0_2 0_2to1_2 1_2to1_1 1_1to2_1"/>
    </vehicle>
    <vehicle id="bl101b7:1" type="bus" depart="1000.00" departPos="80.00" arrivalPos="700.00" arrivalSpeed="0.00">
        <route edges="1_1to1_2 1_2to2_2 2_2to2_1 2_1to1_1"/>
    </vehicle>
    <vehicle id="bl101b8:9" type="bus" depart="1000.00" departPos="640.00" arrivalPos="640.00" arrivalSpeed="0.00">
        <route edges="1_1to1_2"/>
    </vehicle>
    <vehicle id="h238c1:1" type="default" depart="1032.00" departPos="674.16" arrivalPos="674.16" arrivalSpeed="0.00">
        <route edges="1_2to2_2 2_2to2_1 2_1to1_1 1_1to1_2 1_2to2_2"/>
    </vehicle>
    <vehicle id="h85c1:1" type="default" depart="1062.00" departPos="563.84" arrivalPos="563.84" arrivalSpeed="0.00">
        <route edges="1_1to2_1 2_1to2_0 2_0to2_1 2_1to1_1 1_1to1_2 1_2to0_2 0_2to1_2 1_2to1_1 1_1to2_1"/>
    </vehicle>
    <vehicle id="h200c1:1" type="default" depart="1100.00" departPos="86.23" arrivalPos="86.23" arrivalSpeed="0.00">
        <route edges="2_1to1_1 1_1to1_2 1_2to2_2 2_2to2_1 2_1to1_1"/>
    </vehicle>
    <vehicle id="h220c1:1" type="default" depart="1150.00" departPos="196.22" arrivalPos="196.22" arrivalSpeed="0.00">
        <route edges="2_1to1_1 1_1to1_2 1_2to2_2 2_2to2_1 2_1to1_1"/>
    </vehicle>
    <vehicle id="h101c1:1" type="default" depart="1233.00" departPos="606.23" arrivalPos="606.23" arrivalSpeed="0.00">
        <route edges="1_1to2_1 2_1to2_0 2_0to2_1 2_1to1_1 1_1to1_2 1_2to0_2 0_2to1_2 1_2to1_1 1_1to2_1"/>
    </vehicle>
    <vehicle id="bl101b2:1" type="bus" depart="1300.00" departPos="80.00" arrivalPos="700.00" arrivalSpeed="0.00">
        <route edges="1_1to1_2 1_2to2_2 2_2to2_1 2_1to1_1"/>
    </vehicle>
    <vehicle id="bl101b1:11" type="bus" depart="1300.00" departPos="640.00" arrivalPos="640.00" arrivalSpeed="0.00">
        <route edges="1_1to1_2"/>
    </vehicle>
    <vehicle id="randUni412:1" type="random" depart="1543.00" departPos="625.70" arrivalPos="647.36" arrivalSpeed="0.00">
        <route edges="2_2to2_1 2_1to3_1 3_1to2_1 2_1to2_2 2_2to1_2"/>
    </vehicle>
    <vehicle id="bl101b4:1" type="bus" depart="1600.00" departPos="80.00" arrivalPos="700.00" arrivalSpeed="0.00">
        <route edges="1_1to1_2 1_2to2_2 2_2to2_1 2_1to1_1"/>
    </vehicle>
    <vehicle id="bl101b3:9" type="bus" depart="1600.00" departPos="640.00" arrivalPos="640.00" arrivalSpeed="0.00">
        <route edges="1_1to1_2"/>
    </vehicle>
    <vehicle id="bl101b6:1" type="bus" depart="1900.00" departPos="80.00" arrivalPos="700.00" arrivalSpeed="0.00">
        <route edges="1_1to1_2 1_2to2_2 2_2to2_1 2_1to1_1"/>
    </vehicle>
    <vehicle id="bl101b5:9" type="bus" depart="1900.00" departPos="640.00" arrivalPos="640.00" arrivalSpeed="0.00">
        <route edges="1_1to1_2"/>
    </vehicle>
    <vehicle id="randUni333:1" type="random" depart="1947.00" departPos="602.02" arrivalPos="148.50" arrivalSpeed="0.00">
        <route edges="2_1to1_1 1_1to1_2 1_2to2_2 2_2to3_2 3_2to2_2"/>
    </vehicle>
    <vehicle id="randUni335:1" type="random" depart="2189.00" departPos="268.15" arrivalPos="346.87" arrivalSpeed="0.00">
        <route edges="2_1to3_1 3_1to2_1 2_1to2_2 2_2to2_3 2_3to2_2"/>
    </vehicle>
    <vehicle id="bl101b8:1" type="bus" depart="2200.00" departPos="80.00" arrivalPos="700.00" arrivalSpeed="0.00">
        <route edges="1_1to1_2 1_2to2_2 2_2to2_1 2_1to1_1"/>
    </vehicle>
    <vehicle id="bl101b7:9" type="bus" depart="2200.00" departPos="640.00" arrivalPos="640.00" arrivalSpeed="0.00">
        <route edges="1_1to1_2"/>
    </vehicle>
    <vehicle id="bl101b1:3" type="bus" depart="2500.00" departPos="80.00" arrivalPos="700.00" arrivalSpeed="0.00">
        <route edges="1_1to1_2 1_2to2_2 2_2to2_1 2_1to1_1"/>
    </vehicle>
    <vehicle id="bl101b2:11" type="bus" depart="2500.00" departPos="640.00" arrivalPos="640.00" arrivalSpeed="0.00">
        <route edges="1_1to1_2"/>
    </vehicle>
    <vehicle id="bl101b3:3" type="bus" depart="2800.00" departPos="80.00" arrivalPos="700.00" arrivalSpeed="0.00">
        <route edges="1_1to1_2 1_2to2_2 2_2to2_1 2_1to1_1"/>
    </vehicle>
    <vehicle id="bl101b4:11" type="bus" depart="2800.00" departPos="640.00" arrivalPos="640.00" arrivalSpeed="0.00">
        <route edges="1_1to1_2"/>
    </vehicle>
    <vehicle id="bl101b5:3" type="bus" depart="3100.00" departPos="80.00" arrivalPos="700.00" arrivalSpeed="0.00">
        <route edges="1_1to1_2 1_2to2_2 2_2to2_1 2_1to1_1"/>
    </vehicle>
    <vehicle id="bl101b6:11" type="bus" depart="3100.00" departPos="640.00" arrivalPos="640.00" arrivalSpeed="0.00">
        <route edges="1_1to1_2"/>
    </vehicle>
    <vehicle id="randUni5:1" type="random" depart="3382.00" departPos="203.72" arrivalPos="5.93" arrivalSpeed="0.00">
        <route edges="2_1to3_1 3_1to2_1 2_1to2_2 2_2to1_2 1_2to1_1"/>
    </vehicle>
    <vehicle id="bl101b7:3" type="bus" depart="3400.00" departPos="80.00" arrivalPos="700.00" arrivalSpeed="0.00">
        <route edges="1_1to1_2 1_2to2_2 2_2to2_1 2_1to1_1"/>
    </vehicle>
    <vehicle id="bl101b8:11" type="bus" depart="3400.00" departPos="640.00" arrivalPos="640.00" arrivalSpeed="0.00">
        <route edges="1_1to1_2"/>
    </vehicle>
    <vehicle id="randUni334:1" type="random" depart="3462.00" departPos="491.59" arrivalPos="285.05" arrivalSpeed="0.00">
        <route edges="2_2to1_2 1_2to1_3 1_3to1_2 1_2to2_2 2_2to3_2 3_2to2_2"/>
    </vehicle>
    <vehicle id="bl101b2:3" type="bus" depart="3700.00" departPos="80.00" arrivalPos="700.00" arrivalSpeed="0.00">
        <route edges="1_1to1_2 1_2to2_2 2_2to2_1 2_1to1_1"/>
    </vehicle>
    <vehicle id="bl101b1:13" type="bus" depart="3700.00" departPos="640.00" arrivalPos="640.00" arrivalSpeed="0.00">
        <route edges="1_1to1_2"/>
    </vehicle>
    <vehicle id="randUni61:1" type="random" depart="3735.00" departPos="685.91" arrivalPos="774.30" arrivalSpeed="0.00">
        <route edges="1_2to2_2 2_2to2_1 2_1to1_1 1_1to1_2"/>
    </vehicle>
    <vehicle id="randUni122:1" type="random" depart="3953.00" departPos="363.26" arrivalPos="118.20" arrivalSpeed="0.00">
        <route edges="2_2to2_3 2_3to2_2 2_2to2_1 2_1to2_0 2_0to2_1"/>
    </vehicle>
    <vehicle id="bl101b4:3" type="bus" depart="4000.00" departPos="80.00" arrivalPos="700.00" arrivalSpeed="0.00">
        <route edges="1_1to1_2 1_2to2_2 2_2to2_1 2_1to1_1"/>
    </vehicle>
    <vehicle id="bl101b3:11" type="bus" depart="4000.00" departPos="640.00" arrivalPos="640.00" arrivalSpeed="0.00">
        <route edges="1_1to1_2"/>
    </vehicle>
    <vehicle id="randUni30:1" type="random" depart="4125.00" departPos="170.14" arrivalPos="637.29" arrivalSpeed="0.00">
        <route edges="1_2to0_2 0_2to1_2 1_2to2_2 2_2to2_1 2_1to1_1"/>
    </vehicle>
    <vehicle id="bl101b6:3" type="bus" depart="4300.00" departPos="80.00" arrivalPos="700.00" arrivalSpeed="0.00">
        <route edges="1_1to1_2 1_2to2_2 2_2to2_1 2_1to1_1"/>
    </vehicle>
    <vehicle id="bl101b5:11" type="bus" depart="4300.00" departPos="640.00" arrivalPos="640.00" arrivalSpeed="0.00">
        <route edges="1_1to1_2"/>
    </vehicle>
    <vehicle id="randUni256:1" type="random" depart="4325.00" departPos="193.08" arrivalPos="231.18" arrivalSpeed="0.00">
        <route edges="2_2to3_2 3_2to2_2 2_2to2_3"/>
    </vehicle>
    <vehicle id="randUni414:1" type="random" depart="4409.00" departPos="500.25" arrivalPos="194.38" arrivalSpeed="0.00">
        <route edges="2_1to1_1 1_1to1_2 1_2to2_2 2_2to2_3"/>
    </vehicle>
    <vehicle id="randUni116:1" type="random" depart="4499.00" departPos="69.91" arrivalPos="282.15" arrivalSpeed="0.00">
        <route edges="2_1to2_2 2_2to3_2 3_2to2_2"/>
    </vehicle>
    <vehicle id="bl101b8:3" type="bus" depart="4600.00" departPos="80.00" arrivalPos="700.00" arrivalSpeed="0.00">
        <route edges="1_1to1_2 1_2to2_2 2_2to2_1 2_1to1_1"/>
    </vehicle>
    <vehicle id="bl101b7:11" type="bus" depart="4600.00" departPos="640.00" arrivalPos="640.00" arrivalSpeed="0.00">
        <route edges="1_1to1_2"/>
    </vehicle>
    <vehicle id="bl101b1:5" type="bus" depart="4900.00" departPos="80.00" arrivalPos="700.00" arrivalSpeed="0.00">
        <route edges="1_1to1_2 1_2to2_2 2_2to2_1 2_1to1_1"/>
    </vehicle>
    <vehicle id="bl101b2:13" type="bus" depart="4900.00" departPos="640.00" arrivalPos="640.00" arrivalSpeed="0.00">
        <route edges="1_1to1_2"/>
    </vehicle>
    <vehicle id="bl101b3:5" type="bus" depart="5200.00" departPos="80.00" arrivalPos="700.00" arrivalSpeed="0.00">
        <route edges="1_1to1_2 1_2to2_2 2_2to2_1 2_1to1_1"/>
    </vehicle>
    <vehicle id="bl101b4:13" type="bus" depart="5200.00" departPos="640.00" arrivalPos="640.00" arrivalSpeed="0.00">
        <route edges="1_1to1_2"/>
    </vehicle>
    <vehicle id="bl101b5:5" type="bus" depart="5500.00" departPos="80.00" arrivalPos="700.00" arrivalSpeed="0.00">
        <route edges="1_1to1_2 1_2to2_2 2_2to2_1 2_1to1_1"/>
    </vehicle>
    <vehicle id="bl101b6:13" type="bus" depart="5500.00" departPos="640.00" arrivalPos="640.00" arrivalSpeed="0.00">
        <route edges="1_1to1_2"/>
    </vehicle>
    <vehicle id="randUni128:1" type="random" depart="5668.00" departPos="644.13" arrivalPos="141.54" arrivalSpeed="0.00">
        <route edges="1_1to2_1 2_1to2_0 2_0to2_1 2_1to1_1 1_1to0_1 0_1to1_1"/>
    </vehicle>
    <vehicle id="bl101b7:5" type="bus" depart="5800.00" departPos="80.00" arrivalPos="700.00" arrivalSpeed="0.00">
        <route edges="1_1to1_2 1_2to2_2 2_2to2_1 2_1to1_1"/>
    </vehicle>
    <vehicle id="bl101b8:13" type="bus" depart="5800.00" departPos="640.00" arrivalPos="640.00" arrivalSpeed="0.00">
        <route edges="1_1to1_2"/>
    </vehicle>
    <vehicle id="randUni14:1" type="random" depart="5929.00" departPos="132.93" arrivalPos="324.37" arrivalSpeed="0.00">
        <route edges="2_3to2_2 2_2to2_1 2_1to3_1 3_1to2_1 2_1to2_2"/>
    </vehicle>
    <vehicle id="randUni74:1" type="random" depart="6089.00" departPos="43.87" arrivalPos="270.71" arrivalSpeed="0.00">
        <route edges="2_1to3_1 3_1to2_1 2_1to2_2 2_2to3_2 3_2to2_2 2_2to2_1"/>
    </vehicle>
    <vehicle id="bl101b2:5" type="bus" depart="6100.00" departPos="80.00" arrivalPos="700.00" arrivalSpeed="0.00">
        <route edges="1_1to1_2 1_2to2_2 2_2to2_1 2_1to1_1"/>
    </vehicle>
    <vehicle id="bl101b1:15" type="bus" depart="6100.00" departPos="640.00" arrivalPos="640.00" arrivalSpeed="0.00">
        <route edges="1_1to1_2"/>
    </vehicle>
    <vehicle id="bl101b4:5" type="bus" depart="6400.00" departPos="80.00" arrivalPos="700.00" arrivalSpeed="0.00">
        <route edges="1_1to1_2 1_2to2_2 2_2to2_1 2_1to1_1"/>
    </vehicle>
    <vehicle id="bl101b3:13" type="bus" depart="6400.00" departPos="640.00" arrivalPos="640.00" arrivalSpeed="0.00">
        <route edges="1_1to1_2"/>
    </vehicle>
    <vehicle id="bl101b6:5" type="bus" depart="6700.00" departPos="80.00" arrivalPos="700.00" arrivalSpeed="0.00">
        <route edges="1_1to1_2 1_2to2_2 2_2to2_1 2_1to1_1"/>
    </vehicle>
    <vehicle id="bl101b5:13" type="bus" depart="6700.00" departPos="640.00" arrivalPos="640.00" arrivalSpeed="0.00">
        <route edges="1_1to1_2"/>
    </vehicle>
    <vehicle id="bl101b8:5" type="bus" depart="7000.00" departPos="80.00" arrivalPos="700.00" arrivalSpeed="0.00">
        <route edges="1_1to1_2 1_2to2_2 2_2to2_1 2_1to1_1"/>
    </vehicle>
    <vehicle id="bl101b7:13" type="bus" depart="7000.00" departPos="640.00" arrivalPos="640.00" arrivalSpeed="0.00">
        <route edges="1_1to1_2"/>
    </vehicle>
    <vehicle id="bl101b1:7" type="bus" depart="7300.00" departPos="80.00" arrivalPos="700.00" arrivalSpeed="0.00">
        <route edges="1_1to1_2 1_2to2_2 2_2to2_1 2_1to1_1"/>
    </vehicle>
    <vehicle id="bl101b2:15" type="bus" depart="7300.00" departPos="640.00" arrivalPos="640.00" arrivalSpeed="0.00">
        <route edges="1_1to1_2"/>
    </vehicle>
    <vehicle id="bl101b3:7" type="bus" depart="7600.00" departPos="80.00" arrivalPos="700.00" arrivalSpeed="0.00">
        <route edges="1_1to1_2 1_2to2_2 2_2to2_1 2_1to1_1"/>
    </vehicle>
    <vehicle id="bl101b4:15" type="bus" depart="7600.00" departPos="640.00" arrivalPos="640.00" arrivalSpeed="0.00">
        <route edges="1_1to1_2"/>
    </vehicle>
    <vehicle id="randUni149:1" type="random" depart="7669.00" departPos="668.62" arrivalPos="279.12" arrivalSpeed="0.00">
        <route edges="2_2to2_1 2_1to1_1 1_1to0_1"/>
    </vehicle>
    <vehicle id="bl101b5:7" type="bus" depart="7900.00" departPos="80.00" arrivalPos="700.00" arrivalSpeed="0.00">
        <route edges="1_1to1_2 1_2to2_2 2_2to2_1 2_1to1_1"/>
    </vehicle>
    <vehicle id="bl101b6:15" type="bus" depart="7900.00" departPos="640.00" arrivalPos="640.00" arrivalSpeed="0.00">
        <route edges="1_1to1_2"/>
    </vehicle>
    <vehicle id="bl101b7:7" type="bus" depart="8200.00" departPos="80.00" arrivalPos="700.00" arrivalSpeed="0.00">
        <route edges="1_1to1_2 1_2to2_2 2_2to2_1 2_1to1_1"/>
    </vehicle>
    <vehicle id="bl101b8:15" type="bus" depart="8200.00" departPos="640.00" arrivalPos="640.00" arrivalSpeed="0.00">
        <route edges="1_1to1_2"/>
    </vehicle>
    <vehicle id="randUni320:1" type="random" depart="8273.00" departPos="97.20" arrivalPos="342.24" arrivalSpeed="0.00">
        <route edges="2_1to1_1 1_1to1_0 1_0to1_1"/>
    </vehicle>
    <vehicle id="randUni72:1" type="random" depart="8344.00" departPos="146.52" arrivalPos="38.31" arrivalSpeed="0.00">
        <route edges="1_2to2_2 2_2to2_3 2_3to2_2 2_2to1_2 1_2to1_3"/>
    </vehicle>
    <vehicle id="bl101b2:7" type="bus" depart="8500.00" departPos="80.00" arrivalPos="700.00" arrivalSpeed="0.00">
        <route edges="1_1to1_2 1_2to2_2 2_2to2_1 2_1to1_1"/>
    </vehicle>
    <vehicle id="bl101b1:17" type="bus" depart="8500.00" departPos="640.00" arrivalPos="640.00" arrivalSpeed="0.00">
        <route edges="1_1to1_2"/>
    </vehicle>
    <vehicle id="bl101b4:7" type="bus" depart="8800.00" departPos="80.00" arrivalPos="700.00" arrivalSpeed="0.00">
        <route edges="1_1to1_2 1_2to2_2 2_2to2_1 2_1to1_1"/>
    </vehicle>
    <vehicle id="bl101b3:15" type="bus" depart="8800.00" departPos="640.00" arrivalPos="640.00" arrivalSpeed="0.00">
        <route edges="1_1to1_2"/>
    </vehicle>
    <vehicle id="bl101b6:7" type="bus" depart="9100.00" departPos="80.00" arrivalPos="700.00" arrivalSpeed="0.00">
        <route edges="1_1to1_2 1_2to2_2 2_2to2_1 2_1to1_1"/>
    </vehicle>
    <vehicle id="bl101b5:15" type="bus" depart="9100.00" departPos="640.00" arrivalPos="640.00" arrivalSpeed="0.00">
        <route edges="1_1to1_2"/>
    </vehicle>
    <vehicle id="bl101b8:7" type="bus" depart="9400.00" departPos="80.00" arrivalPos="700.00" arrivalSpeed="0.00">
        <route edges="1_1to1_2 1_2to2_2 2_2to2_1 2_1to1_1"/>
    </vehicle>
    <vehicle id="bl101b7:15" type="bus" depart="9400.00" departPos="640.00" arrivalPos="640.00" arrivalSpeed="0.00">
        <route edges="1_1to1_2"/>
    </vehicle>
    <vehicle id="bl101b1:9" type="bus" depart="9700.00" departPos="80.00" arrivalPos="700.00" arrivalSpeed="0.00">
        <route edges="1_1to1_2 1_2to2_2 2_2to2_1 2_1to1_1"/>
    </vehicle>
    <vehicle id="bl101b2:17" type="bus" depart="9700.00" departPos="640.00" arrivalPos="640.00" arrivalSpeed="0.00">
        <route edges="1_1to1_2"/>
    </vehicle>
    <vehicle id="randUni261:1" type="random" depart="10469.00" departPos="341.95" arrivalPos="334.76" arrivalSpeed="0.00">
        <route edges="2_2to3_2 3_2to2_2 2_2to2_1 2_1to2_0"/>
    </vehicle>
    <vehicle id="randUni303:1" type="random" depart="10498.00" departPos="375.67" arrivalPos="174.98" arrivalSpeed="0.00">
        <route edges="2_1to3_1 3_1to2_1 2_1to2_0 2_0to2_1"/>
    </vehicle>
    <vehicle id="randUni365:1" type="random" depart="10653.00" departPos="208.25" arrivalPos="578.64" arrivalSpeed="0.00">
        <route edges="3_2to2_2 2_2to1_2 1_2to1_3 1_3to1_2 1_2to2_2"/>
    </vehicle>
    <vehicle id="randUni263:1" type="random" depart="11420.00" departPos="180.45" arrivalPos="312.67" arrivalSpeed="0.00">
        <route edges="0_1to1_1 1_1to2_1"/>
    </vehicle>
    <vehicle id="randUni386:1" type="random" depart="11626.00" departPos="43.96" arrivalPos="46.61" arrivalSpeed="0.00">
        <route edges="2_2to1_2 1_2to0_2 0_2to1_2"/>
    </vehicle>
    <vehicle id="randUni77:1" type="random" depart="11709.00" departPos="77.33" arrivalPos="353.18" arrivalSpeed="0.00">
        <route edges="2_0to2_1 2_1to2_2 2_2to1_2 1_2to1_3 1_3to1_2"/>
    </vehicle>
    <vehicle id="randUni67:1" type="random" depart="11984.00" departPos="375.08" arrivalPos="37.97" arrivalSpeed="0.00">
        <route edges="3_2to2_2 2_2to2_3 2_3to2_2"/>
    </vehicle>
    <vehicle id="randUni40:1" type="random" depart="12241.00" departPos="171.14" arrivalPos="367.48" arrivalSpeed="0.00">
        <route edges="0_2to1_2 1_2to1_1 1_1to1_0 1_0to1_1"/>
    </vehicle>
    <vehicle id="randUni216:1" type="random" depart="12247.00" departPos="529.27" arrivalPos="449.32" arrivalSpeed="0.00">
        <route edges="2_2to2_1 2_1to1_1"/>
    </vehicle>
    <vehicle id="randUni44:1" type="random" depart="12615.00" departPos="296.11" arrivalPos="345.32" arrivalSpeed="0.00">
        <route edges="2_1to2_0 2_0to2_1 2_1to1_1 1_1to0_1 0_1to1_1"/>
    </vehicle>
    <vehicle id="randUni300:1" type="random" depart="12870.00" departPos="602.71" arrivalPos="73.35" arrivalSpeed="0.00">
        <route edges="1_1to2_1 2_1to2_0 2_0to2_1 2_1to1_1 1_1to1_2"/>
    </vehicle>
    <vehicle id="randUni134:1" type="random" depart="13209.00" departPos="594.24" arrivalPos="59.40" arrivalSpeed="0.00">
        <route edges="1_2to1_1"/>
    </vehicle>
    <vehicle id="randUni26:1" type="random" depart="13411.00" departPos="27.60" arrivalPos="658.35" arrivalSpeed="0.00">
        <route edges="1_2to0_2 0_2to1_2 1_2to2_2 2_2to2_1 2_1to1_1"/>
    </vehicle>
    <vehicle id="randUni403:1" type="random" depart="13714.00" departPos="55.08" arrivalPos="405.60" arrivalSpeed="0.00">
        <route edges="2_2to3_2 3_2to2_2 2_2to2_1"/>
    </vehicle>
    <vehicle id="randUni434:1" type="random" depart="14250.00" departPos="245.65" arrivalPos="318.08" arrivalSpeed="0.00">
        <route edges="1_2to1_1 1_1to0_1 0_1to1_1 1_1to1_2"/>
    </vehicle>
    <vehicle id="randUni179:1" type="random" depart="14421.00" departPos="286.52" arrivalPos="16.75" arrivalSpeed="0.00">
        <route edges="1_1to1_0 1_0to1_1 1_1to2_1 2_1to2_2"/>
    </vehicle>
    <vehicle id="randUni435:1" type="random" depart="14641.00" departPos="22.57" arrivalPos="397.65" arrivalSpeed="0.00">
        <route edges="2_2to2_3 2_3to2_2 2_2to1_2 1_2to1_1"/>
    </vehicle>
    <vehicle id="randUni91:1" type="random" depart="15015.00" departPos="513.09" arrivalPos="203.42" arrivalSpeed="0.00">
        <route edges="2_1to2_2 2_2to1_2 1_2to1_3"/>
    </vehicle>
    <vehicle id="randUni313:1" type="random" depart="15209.00" departPos="570.35" arrivalPos="111.06" arrivalSpeed="0.00">
        <route edges="2_2to1_2 1_2to1_1 1_1to1_0 1_0to1_1"/>
    </vehicle>
    <vehicle id="randUni348:1" type="random" depart="15331.00" departPos="84.23" arrivalPos="75.57" arrivalSpeed="0.00">
        <route edges="1_1to2_1 2_1to2_2 2_2to1_2 1_2to0_2 0_2to1_2"/>
    </vehicle>
    <vehicle id="randUni391:1" type="random" depart="15690.00" departPos="21.12" arrivalPos="147.86" arrivalSpeed="0.00">
        <route edges="2_2to1_2 1_2to1_1 1_1to2_1 2_1to3_1"/>
    </vehicle>
    <vehicle id="randUni437:1" type="random" depart="16145.00" departPos="199.67" arrivalPos="19.40" arrivalSpeed="0.00">
        <route edges="2_2to2_3 2_3to2_2 2_2to1_2 1_2to1_1 1_1to0_1"/>
    </vehicle>
    <vehicle id="randUni68:1" type="random" depart="16443.00" departPos="3.60" arrivalPos="134.57" arrivalSpeed="0.00">
        <route edges="1_2to1_1 1_1to0_1 0_1to1_1 1_1to1_2 1_2to1_3"/>
    </vehicle>
    <vehicle id="randUni113:1" type="random" depart="16458.00" departPos="727.68" arrivalPos="369.74" arrivalSpeed="0.00">
        <route edges="2_1to1_1 1_1to1_2 1_2to2_2 2_2to2_3 2_3to2_2"/>
    </vehicle>
    <vehicle id="randUni153:1" type="random" depart="16835.00" departPos="132.71" arrivalPos="161.62" arrivalSpeed="0.00">
        <route edges="1_1to0_1 0_1to1_1 1_1to2_1 2_1to2_0 2_0to2_1 2_1to1_1"/>
    </vehicle>
    <vehicle id="randUni36:1" type="random" depart="17317.00" departPos="153.65" arrivalPos="211.66" arrivalSpeed="0.00">
        <route edges="1_0to1_1 1_1to2_1 2_1to2_2 2_2to3_2"/>
    </vehicle>
    <vehicle id="randUni43:1" type="random" depart="17551.00" departPos="185.89" arrivalPos="98.58" arrivalSpeed="0.00">
        <route edges="1_3to1_2 1_2to2_2 2_2to3_2 3_2to2_2"/>
    </vehicle>
    <vehicle id="randUni16:1" type="random" depart="18061.00" departPos="124.27" arrivalPos="169.59" arrivalSpeed="0.00">
        <route edges="1_2to2_2 2_2to2_3 2_3to2_2 2_2to1_2 1_2to1_3 1_3to1_2"/>
    </vehicle>
    <vehicle id="randUni53:1" type="random" depart="18890.00" departPos="56.49" arrivalPos="193.02" arrivalSpeed="0.00">
        <route edges="2_2to2_1 2_1to3_1 3_1to2_1 2_1to2_2 2_2to3_2 3_2to2_2"/>
    </vehicle>
    <vehicle id="randUni413:1" type="random" depart="18935.00" departPos="240.56" arrivalPos="500.11" arrivalSpeed="0.00">
        <route edges="2_1to2_2 2_2to3_2 3_2to2_2 2_2to2_1"/>
    </vehicle>
    <vehicle id="randUni405:1" type="random" depart="19428.00" departPos="333.90" arrivalPos="384.24" arrivalSpeed="0.00">
        <route edges="1_1to0_1 0_1to1_1 1_1to2_1 2_1to2_2 2_2to3_2 3_2to2_2"/>
    </vehicle>
    <vehicle id="randUni425:1" type="random" depart="19516.00" departPos="156.18" arrivalPos="197.89" arrivalSpeed="0.00">
        <route edges="2_1to3_1 3_1to2_1 2_1to2_2 2_2to1_2"/>
    </vehicle>
    <vehicle id="randUni168:1" type="random" depart="19518.00" departPos="317.75" arrivalPos="329.46" arrivalSpeed="0.00">
        <route edges="1_0to1_1 1_1to1_2 1_2to1_3"/>
    </vehicle>
    <vehicle id="randUni283:1" type="random" depart="19653.00" departPos="228.17" arrivalPos="245.75" arrivalSpeed="0.00">
        <route edges="2_3to2_2 2_2to3_2"/>
    </vehicle>
    <vehicle id="randUni349:1" type="random" depart="20135.00" departPos="55.14" arrivalPos="147.14" arrivalSpeed="0.00">
        <route edges="0_2to1_2 1_2to1_1 1_1to2_1 2_1to2_0 2_0to2_1"/>
    </vehicle>
    <vehicle id="randUni6:1" type="random" depart="20177.00" departPos="105.35" arrivalPos="341.85" arrivalSpeed="0.00">
        <route edges="1_1to1_0 1_0to1_1 1_1to2_1 2_1to3_1"/>
    </vehicle>
    <vehicle id="randUni219:1" type="random" depart="20991.00" departPos="265.25" arrivalPos="300.54" arrivalSpeed="0.00">
        <route edges="2_2to2_3 2_3to2_2 2_2to1_2 1_2to1_1 1_1to0_1"/>
    </vehicle>
    <vehicle id="randUni139:1" type="random" depart="21414.00" departPos="384.70" arrivalPos="135.74" arrivalSpeed="0.00">
        <route edges="1_2to0_2 0_2to1_2 1_2to1_3"/>
    </vehicle>
    <vehicle id="randUni341:1" type="random" depart="21640.00" departPos="85.37" arrivalPos="72.33" arrivalSpeed="0.00">
        <route edges="1_1to1_2 1_2to2_2 2_2to2_1 2_1to2_0"/>
    </vehicle>
    <vehicle id="randUni371:1" type="random" depart="21727.00" departPos="296.88" arrivalPos="71.40" arrivalSpeed="0.00">
        <route edges="1_1to1_0 1_0to1_1 1_1to1_2 1_2to1_3 1_3to1_2"/>
    </vehicle>
    <vehicle id="randUni319:1" type="random" depart="22299.00" departPos="254.46" arrivalPos="611.51" arrivalSpeed="0.00">
        <route edges="2_2to2_1 2_1to3_1 3_1to2_1 2_1to2_2 2_2to1_2"/>
    </vehicle>
    <vehicle id="randUni350:1" type="random" depart="22308.00" departPos="466.70" arrivalPos="250.75" arrivalSpeed="0.00">
        <route edges="2_2to1_2"/>
    </vehicle>
    <vehicle id="randUni13:1" type="random" depart="22493.00" departPos="143.06" arrivalPos="330.38" arrivalSpeed="0.00">
        <route edges="1_0to1_1 1_1to2_1 2_1to2_2 2_2to2_3"/>
    </vehicle>
    <vehicle id="randUni265:1" type="random" depart="22687.00" departPos="250.50" arrivalPos="31.91" arrivalSpeed="0.00">
        <route edges="2_2to3_2 3_2to2_2"/>
    </vehicle>
    <vehicle id="randUni187:1" type="random" depart="22715.00" departPos="340.63" arrivalPos="323.90" arrivalSpeed="0.00">
        <route edges="2_0to2_1 2_1to2_2"/>
    </vehicle>
    <vehicle id="randUni441:1" type="random" depart="23020.00" departPos="2.33" arrivalPos="372.70" arrivalSpeed="0.00">
        <route edges="2_1to2_0 2_0to2_1 2_1to2_2 2_2to1_2 1_2to1_3"/>
    </vehicle>
    <vehicle id="randUni340:1" type="random" depart="23067.00" departPos="33.20" arrivalPos="705.87" arrivalSpeed="0.00">
        <route edges="3_2to2_2 2_2to1_2"/>
    </vehicle>
    <vehicle id="randUni440:1" type="random" depart="23286.00" departPos="179.51" arrivalPos="118.21" arrivalSpeed="0.00">
        <route edges="1_1to1_0 1_0to1_1 1_1to2_1 2_1to2_0 2_0to2_1 2_1to1_1"/>
    </vehicle>
    <vehicle id="randUni89:1" type="random" depart="23341.00" departPos="100.02" arrivalPos="690.90" arrivalSpeed="0.00">
        <route edges="2_1to3_1 3_1to2_1 2_1to2_2"/>
    </vehicle>
    <vehicle id="randUni380:1" type="random" depart="23871.00" departPos="213.53" arrivalPos="96.32" arrivalSpeed="0.00">
        <route edges="2_1to3_1 3_1to2_1 2_1to1_1 1_1to1_2 1_2to2_2"/>
    </vehicle>
    <vehicle id="randUni197:1" type="random" depart="23957.00" departPos="378.17" arrivalPos="680.29" arrivalSpeed="0.00">
        <route edges="3_1to2_1 2_1to1_1 1_1to1_2 1_2to2_2"/>
    </vehicle>
    <vehicle id="randUni448:1" type="random" depart="24038.00" departPos="196.65" arrivalPos="150.35" arrivalSpeed="0.00">
        <route edges="0_1to1_1"/>
    </vehicle>
    <vehicle id="randUni278:1" type="random" depart="24176.00" departPos="76.20" arrivalPos="703.20" arrivalSpeed="0.00">
        <route edges="1_2to1_3 1_3to1_2 1_2to2_2 2_2to2_1"/>
    </vehicle>
    <vehicle id="randUni337:1" type="random" depart="25520.00" departPos="104.86" arrivalPos="359.61" arrivalSpeed="0.00">
        <route edges="2_1to1_1 1_1to1_2 1_2to0_2 0_2to1_2"/>
    </vehicle>