<?xml version="1.0" encoding="UTF-8"?>
<routes xmlns:xsi="http://www.w3.org/2001/XMLSchema-instance" xsi:noNamespaceSchemaLocation="http://sumo.dlr.de/xsd/routes_file.xsd">
<vType id="bus" vClass="bus"/>
<vType id="truck" vClass="truck"/>
<vType id="passenger" vClass="passenger"/>
<vType id="motorcycle" vClass="motorcycle"/>
<trip id="0" depart="0" from="0_1to1_1" to="2_1to2_0" type="motorcycle"/>
<trip id="1" depart="2" from="0_2to1_2" to="2_2to3_2" type="motorcycle"/>
<trip id="2" depart="4" from="1_3to1_2" to="1_1to0_1" type="passenger"/>
<trip id="3" depart="6" from="1_3to1_2" to="1_2to0_2" type="passenger"/>
<trip id="4" depart="8" from="3_2to2_2" to="1_2to0_2" type="motorcycle"/>
<trip id="5" depart="10" from="1_0to1_1" to="2_1to3_1" type="motorcycle"/>
<trip id="6" depart="12" from="2_0to2_1" to="2_1to3_1" type="bus"/>
<trip id="7" depart="14" from="1_3to1_2" to="1_1to0_1" type="bus"/>
<trip id="8" depart="16" from="1_3to1_2" to="2_1to3_1" type="passenger"/>
<trip id="9" depart="18" from="2_0to2_1" to="2_2to3_2" type="bus"/>
<trip id="10" depart="20" from="2_3to2_2" to="1_2to0_2" type="truck"/>
<trip id="11" depart="22" from="0_2to1_2" to="2_2to3_2" type="passenger"/>
<trip id="12" depart="24" from="3_1to2_1" to="1_1to1_0" type="bus"/>
<trip id="13" depart="26" from="1_3to1_2" to="2_1to2_0" type="bus"/>
<trip id="14" depart="28" from="1_3to1_2" to="2_2to2_3" type="passenger"/>
<trip id="15" depart="30" from="1_0to1_1" to="1_1to1_0" type="bus"/>
<trip id="16" depart="32" from="0_1to1_1" to="1_1to1_0" type="passenger"/>
<trip id="17" depart="34" from="2_0to2_1" to="2_1to2_0" type="motorcycle"/>
<trip id="18" depart="36" from="3_1to2_1" to="2_1to3_1" type="motorcycle"/>
<trip id="19" depart="38" from="1_3to1_2" to="2_2to2_3" type="motorcycle"/>
<trip id="20" depart="40" from="0_2to1_2" to="2_2to2_3" type="truck"/>
<trip id="21" depart="42" from="3_1to2_1" to="2_1to3_1" type="bus"/>
<trip id="22" depart="44" from="1_0to1_1" to="2_1to2_0" type="bus"/>
<trip id="23" depart="46" from="0_2to1_2" to="1_1to0_1" type="motorcycle"/>
<trip id="24" depart="48" from="2_3to2_2" to="1_1to0_1" type="bus"/>
<trip id="25" depart="50" from="3_2to2_2" to="2_1to2_0" type="truck"/>
<trip id="26" depart="52" from="0_1to1_1" to="1_2to0_2" type="motorcycle"/>
<trip id="27" depart="54" from="0_2to1_2" to="1_2to1_3" type="truck"/>
<trip id="28" depart="56" from="0_1to1_1" to="1_2to0_2" type="passenger"/>
<trip id="29" depart="58" from="2_3to2_2" to="1_1to1_0" type="truck"/>
<trip id="30" depart="60" from="0_1to1_1" to="1_2to0_2" type="bus"/>
<trip id="31" depart="62" from="3_1to2_1" to="1_1to0_1" type="truck"/>
<trip id="32" depart="64" from="3_1to2_1" to="1_2to1_3" type="motorcycle"/>
<trip id="33" depart="66" from="3_2to2_2" to="2_1to2_0" type="passenger"/>
<trip id="34" depart="68" from="1_3to1_2" to="1_1to0_1" type="passenger"/>
<trip id="35" depart="70" from="2_3to2_2" to="2_1to3_1" type="passenger"/>
<trip id="36" depart="72" from="0_1to1_1" to="2_1to2_0" type="bus"/>
<trip id="37" depart="74" from="3_2to2_2" to="2_1to3_1" type="motorcycle"/>
<trip id="38" depart="76" from="3_2to2_2" to="1_2to1_3" type="passenger"/>
<trip id="39" depart="78" from="2_3to2_2" to="2_1to2_0" type="passenger"/>
<trip id="40" depart="80" from="3_2to2_2" to="2_2to3_2" type="passenger"/>
<trip id="41" depart="82" from="3_2to2_2" to="2_2to2_3" type="bus"/>
<trip id="42" depart="84" from="2_0to2_1" to="1_2to1_3" type="truck"/>
<trip id="43" depart="86" from="1_0to1_1" to="1_2to0_2" type="truck"/>
<trip id="44" depart="88" from="2_3to2_2" to="2_2to3_2" type="truck"/>
<trip id="45" depart="90" from="3_2to2_2" to="2_2to2_3" type="motorcycle"/>
<trip id="46" depart="92" from="2_0to2_1" to="1_1to0_1" type="bus"/>
<trip id="47" depart="94" from="1_3to1_2" to="2_1to2_0" type="passenger"/>
<trip id="48" depart="96" from="1_3to1_2" to="1_2to0_2" type="motorcycle"/>
<trip id="49" depart="98" from="3_1to2_1" to="1_2to0_2" type="motorcycle"/>
<trip id="50" depart="100" from="1_3to1_2" to="2_2to3_2" type="truck"/>
<trip id="51" depart="102" from="1_0to1_1" to="2_1to3_1" type="bus"/>
<trip id="52" depart="104" from="0_2to1_2" to="2_1to3_1" type="motorcycle"/>
<trip id="53" depart="106" from="1_0to1_1" to="1_1to1_0" type="passenger"/>
<trip id="54" depart="108" from="1_0to1_1" to="1_1to0_1" type="truck"/>
<trip id="55" depart="110" from="0_1to1_1" to="1_1to1_0" type="bus"/>
<trip id="56" depart="112" from="1_0to1_1" to="2_2to3_2" type="motorcycle"/>
<trip id="57" depart="114" from="2_0to2_1" to="1_1to0_1" type="bus"/>
<trip id="58" depart="116" from="0_1to1_1" to="2_1to2_0" type="truck"/>
<trip id="59" depart="118" from="2_0to2_1" to="1_2to1_3" type="truck"/>
<trip id="60" depart="120" from="1_0to1_1" to="1_1to0_1" type="passenger"/>
<trip id="61" depart="122" from="2_0to2_1" to="1_2to1_3" type="bus"/>
<trip id="62" depart="124" from="0_1to1_1" to="2_2to3_2" type="passenger"/>
<trip id="63" depart="126" from="1_0to1_1" to="2_2to3_2" type="truck"/>
<trip id="64" depart="128" from="0_2to1_2" to="1_2to1_3" type="truck"/>
<trip id="65" depart="130" from="3_1to2_1" to="1_1to1_0" type="motorcycle"/>
<trip id="66" depart="132" from="1_0to1_1" to="2_1to2_0" type="motorcycle"/>
<trip id="67" depart="134" from="3_1to2_1" to="1_1to0_1" type="motorcycle"/>
<trip id="68" depart="136" from="0_1to1_1" to="1_2to0_2" type="motorcycle"/>
<trip id="69" depart="138" from="1_0to1_1" to="2_1to2_0" type="motorcycle"/>
<trip id="70" depart="140" from="2_3to2_2" to="2_1to3_1" type="bus"/>
<trip id="71" depart="142" from="1_3to1_2" to="1_1to0_1" type="motorcycle"/>
<trip id="72" depart="144" from="2_0to2_1" to="2_1to3_1" type="motorcycle"/>
<trip id="73" depart="146" from="1_3to1_2" to="1_2to1_3" type="bus"/>
<trip id="74" depart="148" from="2_0to2_1" to="1_1to0_1" type="bus"/>
<trip id="75" depart="150" from="1_0to1_1" to="2_2to2_3" type="motorcycle"/>
<trip id="76" depart="152" from="0_2to1_2" to="2_2to3_2" type="bus"/>
<trip id="77" depart="154" from="3_2to2_2" to="1_2to0_2" type="truck"/>
<trip id="78" depart="156" from="3_1to2_1" to="2_2to3_2" type="motorcycle"/>
<trip id="79" depart="158" from="1_3to1_2" to="1_1to0_1" type="passenger"/>
<trip id="80" depart="160" from="1_0to1_1" to="2_2to2_3" type="passenger"/>
<trip id="81" depart="162" from="0_1to1_1" to="2_1to3_1" type="motorcycle"/>
<trip id="82" depart="164" from="0_2to1_2" to="2_2to2_3" type="bus"/>
<trip id="83" depart="166" from="0_1to1_1" to="1_2to1_3" type="motorcycle"/>
<trip id="84" depart="168" from="1_3to1_2" to="2_2to2_3" type="truck"/>
<trip id="85" depart="170" from="3_2to2_2" to="2_2to3_2" type="passenger"/>
<trip id="86" depart="172" from="3_1to2_1" to="2_1to3_1" type="passenger"/>
<trip id="87" depart="174" from="0_1to1_1" to="2_2to2_3" type="bus"/>
<trip id="88" depart="176" from="1_0to1_1" to="1_1to1_0" type="motorcycle"/>
<trip id="89" depart="178" from="0_1to1_1" to="2_2to3_2" type="bus"/>
<trip id="90" depart="180" from="3_1to2_1" to="2_2to2_3" type="motorcycle"/>
<trip id="91" depart="182" from="3_1to2_1" to="1_2to0_2" type="truck"/>
<trip id="92" depart="184" from="3_1to2_1" to="2_1to3_1" type="motorcycle"/>
<trip id="93" depart="186" from="1_0to1_1" to="1_2to0_2" type="motorcycle"/>
<trip id="94" depart="188" from="2_0to2_1" to="1_1to1_0" type="passenger"/>
<trip id="95" depart="190" from="3_2to2_2" to="2_2to2_3" type="motorcycle"/>
<trip id="96" depart="192" from="1_3to1_2" to="1_2to1_3" type="bus"/>
<trip id="97" depart="194" from="0_2to1_2" to="2_2to3_2" type="passenger"/>
<trip id="98" depart="196" from="1_3to1_2" to="2_1to2_0" type="motorcycle"/>
<trip id="99" depart="198" from="2_3to2_2" to="1_2to1_3" type="bus"/>
<trip id="100" depart="200" from="2_0to2_1" to="1_2to0_2" type="motorcycle"/>
<trip id="101" depart="202" from="3_1to2_1" to="1_2to0_2" type="bus"/>
<trip id="102" depart="204" from="1_3to1_2" to="1_2to0_2" type="truck"/>
<trip id="103" depart="206" from="3_1to2_1" to="1_1to1_0" type="truck"/>
<trip id="104" depart="208" from="1_3to1_2" to="1_1to0_1" type="passenger"/>
<trip id="105" depart="210" from="1_3to1_2" to="1_2to0_2" type="truck"/>
<trip id="106" depart="212" from="3_1to2_1" to="1_2to1_3" type="passenger"/>
<trip id="107" depart="214" from="2_3to2_2" to="1_1to1_0" type="motorcycle"/>
<trip id="108" depart="216" from="1_3to1_2" to="2_1to2_0" type="truck"/>
<trip id="109" depart="218" from="3_1to2_1" to="2_1to3_1" type="passenger"/>
<trip id="110" depart="220" from="0_2to1_2" to="1_1to1_0" type="motorcycle"/>
<trip id="111" depart="222" from="0_1to1_1" to="2_1to3_1" type="bus"/>
<trip id="112" depart="224" from="0_2to1_2" to="2_1to3_1" type="passenger"/>
<trip id="113" depart="226" from="0_2to1_2" to="1_1to0_1" type="passenger"/>
<trip id="114" depart="228" from="0_1to1_1" to="1_2to1_3" type="passenger"/>
<trip id="115" depart="230" from="3_1to2_1" to="2_1to3_1" type="motorcycle"/>
<trip id="116" depart="232" from="0_2to1_2" to="2_1to2_0" type="truck"/>
<trip id="117" depart="234" from="1_0to1_1" to="2_2to2_3" type="motorcycle"/>
<trip id="118" depart="236" from="3_1to2_1" to="1_2to0_2" type="motorcycle"/>
<trip id="119" depart="238" from="1_3to1_2" to="1_1to1_0" type="bus"/>
<trip id="120" depart="240" from="3_2to2_2" to="1_2to0_2" type="bus"/>
<trip id="121" depart="242" from="0_2to1_2" to="1_2to0_2" type="truck"/>
<trip id="122" depart="244" from="1_0to1_1" to="1_2to1_3" type="motorcycle"/>
<trip id="123" depart="246" from="2_0to2_1" to="2_1to3_1" type="passenger"/>
<trip id="124" depart="248" from="0_2to1_2" to="2_1to3_1" type="motorcycle"/>
<trip id="125" depart="250" from="3_1to2_1" to="1_1to1_0" type="passenger"/>
<trip id="126" depart="252" from="2_3to2_2" to="2_1to2_0" type="passenger"/>
<trip id="127" depart="254" from="2_3to2_2" to="2_2to2_3" type="passenger"/>
<trip id="128" depart="256" from="2_3to2_2" to="2_1to2_0" type="passenger"/>
<trip id="129" depart="258" from="0_2to1_2" to="2_1to2_0" type="passenger"/>
<trip id="130" depart="260" from="0_1to1_1" to="2_2to3_2" type="motorcycle"/>
<trip id="131" depart="262" from="0_1to1_1" to="1_1to1_0" type="passenger"/>
<trip id="132" depart="264" from="1_0to1_1" to="1_2to1_3" type="bus"/>
<trip id="133" depart="266" from="1_0to1_1" to="1_1to1_0" type="truck"/>
<trip id="134" depart="268" from="2_0to2_1" to="2_1to2_0" type="truck"/>
<trip id="135" depart="270" from="3_2to2_2" to="1_2to0_2" type="passenger"/>
<trip id="136" depart="272" from="1_0to1_1" to="2_2to2_3" type="motorcycle"/>
<trip id="137" depart="274" from="0_2to1_2" to="2_1to3_1" type="passenger"/>
<trip id="138" depart="276" from="3_2to2_2" to="1_1to0_1" type="truck"/>
<trip id="139" depart="278" from="3_1to2_1" to="1_1to1_0" type="passenger"/>
<trip id="140" depart="280" from="0_2to1_2" to="1_2to1_3" type="motorcycle"/>
<trip id="141" depart="282" from="0_1to1_1" to="2_1to2_0" type="motorcycle"/>
<trip id="142" depart="284" from="1_3to1_2" to="2_2to2_3" type="bus"/>
<trip id="143" depart="286" from="3_1to2_1" to="2_1to3_1" type="passenger"/>
<trip id="144" depart="288" from="2_3to2_2" to="1_2to1_3" type="bus"/>
<trip id="145" depart="290" from="2_3to2_2" to="1_2to1_3" type="passenger"/>
<trip id="146" depart="292" from="3_2to2_2" to="1_1to1_0" type="passenger"/>
<trip id="147" depart="294" from="1_0to1_1" to="1_2to1_3" type="bus"/>
<trip id="148" depart="296" from="1_0to1_1" to="2_2to3_2" type="passenger"/>
<trip id="149" depart="298" from="2_0to2_1" to="2_1to2_0" type="passenger"/>
<trip id="150" depart="300" from="0_2to1_2" to="2_2to3_2" type="motorcycle"/>
<trip id="151" depart="302" from="3_1to2_1" to="2_1to3_1" type="passenger"/>
<trip id="152" depart="304" from="2_0to2_1" to="1_2to1_3" type="motorcycle"/>
<trip id="153" depart="306" from="0_1to1_1" to="2_2to2_3" type="truck"/>
<trip id="154" depart="308" from="1_3to1_2" to="1_1to0_1" type="bus"/>
<trip id="155" depart="310" from="3_2to2_2" to="2_1to3_1" type="bus"/>
<trip id="156" depart="312" from="0_1to1_1" to="2_2to3_2" type="motorcycle"/>
<trip id="157" depart="314" from="1_3to1_2" to="2_1to2_0" type="motorcycle"/>
<trip id="158" depart="316" from="0_1to1_1" to="2_1to3_1" type="passenger"/>
<trip id="159" depart="318" from="0_2to1_2" to="2_2to2_3" type="passenger"/>
<trip id="160" depart="320" from="1_0to1_1" to="2_2to2_3" type="bus"/>
<trip id="161" depart="322" from="0_1to1_1" to="2_2to3_2" type="truck"/>
<trip id="162" depart="324" from="1_3to1_2" to="2_2to3_2" type="motorcycle"/>
<trip id="163" depart="326" from="1_0to1_1" to="1_1to1_0" type="passenger"/>
<trip id="164" depart="328" from="2_3to2_2" to="1_1to1_0" type="motorcycle"/>
<trip id="165" depart="330" from="0_2to1_2" to="2_1to3_1" type="truck"/>
<trip id="166" depart="332" from="2_3to2_2" to="2_2to2_3" type="truck"/>
<trip id="167" depart="334" from="1_0to1_1" to="1_2to1_3" type="truck"/>
<trip id="168" depart="336" from="3_2to2_2" to="2_1to3_1" type="motorcycle"/>
<trip id="169" depart="338" from="3_1to2_1" to="2_1to2_0" type="passenger"/>
<trip id="170" depart="340" from="3_1to2_1" to="2_1to3_1" type="motorcycle"/>
<trip id="171" depart="342" from="1_0to1_1" to="2_1to2_0" type="truck"/>
<trip id="172" depart="344" from="3_1to2_1" to="1_1to0_1" type="motorcycle"/>
<trip id="173" depart="346" from="2_3to2_2" to="2_1to2_0" type="truck"/>
<trip id="174" depart="348" from="0_1to1_1" to="1_1to0_1" type="passenger"/>
<trip id="175" depart="350" from="3_1to2_1" to="1_2to0_2" type="bus"/>
<trip id="176" depart="352" from="1_3to1_2" to="2_2to3_2" type="passenger"/>
<trip id="177" depart="354" from="0_1to1_1" to="2_2to2_3" type="bus"/>
<trip id="178" depart="356" from="0_2to1_2" to="1_1to1_0" type="truck"/>
<trip id="179" depart="358" from="2_3to2_2" to="1_2to1_3" type="truck"/>
<trip id="180" depart="360" from="0_1to1_1" to="2_2to3_2" type="motorcycle"/>
<trip id="181" depart="362" from="2_3to2_2" to="1_2to1_3" type="motorcycle"/>
<trip id="182" depart="364" from="1_0to1_1" to="2_1to2_0" type="truck"/>
<trip id="183" depart="366" from="1_0to1_1" to="2_2to3_2" type="truck"/>
<trip id="184" depart="368" from="1_3to1_2" to="1_1to0_1" type="bus"/>
<trip id="185" depart="370" from="2_3to2_2" to="2_1to2_0" type="truck"/>
<trip id="186" depart="372" from="3_1to2_1" to="1_1to0_1" type="bus"/>
<trip id="187" depart="374" from="0_1to1_1" to="1_1to0_1" type="bus"/>
<trip id="188" depart="376" from="1_3to1_2" to="2_2to2_3" type="bus"/>
<trip id="189" depart="378" from="1_3to1_2" to="2_1to2_0" type="bus"/>
<trip id="190" depart="380" from="3_1to2_1" to="2_2to2_3" type="motorcycle"/>
<trip id="191" depart="382" from="0_1to1_1" to="1_2to0_2" type="truck"/>
<trip id="192" depart="384" from="1_0to1_1" to="1_2to0_2" type="motorcycle"/>
<trip id="193" depart="386" from="0_1to1_1" to="2_1to2_0" type="motorcycle"/>
<trip id="194" depart="388" from="1_3to1_2" to="1_2to1_3" type="motorcycle"/>
<trip id="195" depart="390" from="0_1to1_1" to="1_2to1_3" type="motorcycle"/>
<trip id="196" depart="392" from="3_2to2_2" to="2_2to3_2" type="truck"/>
<trip id="197" depart="394" from="1_0to1_1" to="2_1to3_1" type="passenger"/>
<trip id="198" depart="396" from="2_3to2_2" to="2_2to2_3" type="truck"/>
<trip id="199" depart="398" from="0_1to1_1" to="1_2to0_2" type="passenger"/>
<trip id="200" depart="400" from="1_0to1_1" to="2_1to2_0" type="truck"/>
<trip id="201" depart="402" from="1_0to1_1" to="2_2to3_2" type="bus"/>
<trip id="202" depart="404" from="3_1to2_1" to="1_1to1_0" type="bus"/>
<trip id="203" depart="406" from="1_3to1_2" to="2_1to3_1" type="motorcycle"/>
<trip id="204" depart="408" from="1_0to1_1" to="1_2to1_3" type="passenger"/>
<trip id="205" depart="410" from="2_3to2_2" to="1_2to0_2" type="truck"/>
<trip id="206" depart="412" from="3_1to2_1" to="1_1to0_1" type="bus"/>
<trip id="207" depart="414" from="0_2to1_2" to="2_1to2_0" type="bus"/>
<trip id="208" depart="416" from="1_0to1_1" to="1_1to0_1" type="bus"/>
<trip id="209" depart="418" from="2_3to2_2" to="2_1to2_0" type="bus"/>
<trip id="210" depart="420" from="0_1to1_1" to="1_1to1_0" type="truck"/>
<trip id="211" depart="422" from="0_1to1_1" to="1_1to1_0" type="motorcycle"/>
<trip id="212" depart="424" from="2_0to2_1" to="2_2to2_3" type="motorcycle"/>
<trip id="213" depart="426" from="2_0to2_1" to="2_2to2_3" type="motorcycle"/>
<trip id="214" depart="428" from="0_2to1_2" to="1_1to1_0" type="bus"/>
<trip id="215" depart="430" from="3_2to2_2" to="1_1to0_1" type="motorcycle"/>
<trip id="216" depart="432" from="1_3to1_2" to="1_1to1_0" type="motorcycle"/>
<trip id="217" depart="434" from="2_0to2_1" to="2_2to2_3" type="truck"/>
<trip id="218" depart="436" from="2_0to2_1" to="2_1to2_0" type="bus"/>
<trip id="219" depart="438" from="1_3to1_2" to="1_2to0_2" type="bus"/>
<trip id="220" depart="440" from="1_3to1_2" to="1_2to1_3" type="motorcycle"/>
<trip id="221" depart="442" from="0_1to1_1" to="2_2to3_2" type="truck"/>
<trip id="222" depart="444" from="3_1to2_1" to="2_1to3_1" type="truck"/>
<trip id="223" depart="446" from="3_1to2_1" to="2_1to3_1" type="passenger"/>
<trip id="224" depart="448" from="0_1to1_1" to="2_2to3_2" type="bus"/>
<trip id="225" depart="450" from="2_0to2_1" to="2_1to2_0" type="motorcycle"/>
<trip id="226" depart="452" from="3_1to2_1" to="1_2to1_3" type="truck"/>
<trip id="227" depart="454" from="3_2to2_2" to="1_2to1_3" type="bus"/>
<trip id="228" depart="456" from="0_1to1_1" to="2_1to2_0" type="motorcycle"/>
<trip id="229" depart="458" from="0_2to1_2" to="1_1to0_1" type="truck"/>
<trip id="230" depart="460" from="2_0to2_1" to="2_2to3_2" type="passenger"/>
<trip id="231" depart="462" from="1_3to1_2" to="1_1to1_0" type="passenger"/>
<trip id="232" depart="464" from="0_1to1_1" to="2_2to2_3" type="bus"/>
<trip id="233" depart="466" from="2_3to2_2" to="2_2to2_3" type="truck"/>
<trip id="234" depart="468" from="0_1to1_1" to="2_1to3_1" type="passenger"/>
<trip id="235" depart="470" from="1_3to1_2" to="1_2to1_3" type="motorcycle"/>
<trip id="236" depart="472" from="0_2to1_2" to="1_1to0_1" type="motorcycle"/>
<trip id="237" depart="474" from="0_2to1_2" to="1_1to0_1" type="truck"/>
<trip id="238" depart="476" from="1_3to1_2" to="2_2to3_2" type="motorcycle"/>
<trip id="239" depart="478" from="1_0to1_1" to="2_2to2_3" type="truck"/>
<trip id="240" depart="480" from="1_0to1_1" to="1_2to0_2" type="passenger"/>
<trip id="241" depart="482" from="2_3to2_2" to="1_1to0_1" type="motorcycle"/>
<trip id="242" depart="484" from="3_2to2_2" to="2_1to3_1" type="bus"/>
<trip id="243" depart="486" from="2_3to2_2" to="1_2to0_2" type="passenger"/>
<trip id="244" depart="488" from="2_3to2_2" to="2_1to2_0" type="motorcycle"/>
<trip id="245" depart="490" from="0_2to1_2" to="2_2to2_3" type="passenger"/>
<trip id="246" depart="492" from="0_1to1_1" to="2_1to2_0" type="motorcycle"/>
<trip id="247" depart="494" from="1_3to1_2" to="1_2to0_2" type="bus"/>
<trip id="248" depart="496" from="1_3to1_2" to="1_1to1_0" type="passenger"/>
<trip id="249" depart="498" from="0_1to1_1" to="1_1to0_1" type="motorcycle"/>
<trip id="250" depart="500" from="3_1to2_1" to="2_2to3_2" type="passenger"/>
<trip id="251" depart="502" from="3_1to2_1" to="1_1to0_1" type="bus"/>
<trip id="252" depart="504" from="1_0to1_1" to="1_1to1_0" type="motorcycle"/>
<trip id="253" depart="506" from="2_3to2_2" to="1_2to1_3" type="truck"/>
<trip id="254" depart="508" from="3_2to2_2" to="2_2to2_3" type="motorcycle"/>
<trip id="255" depart="510" from="2_0to2_1" to="1_1to0_1" type="passenger"/>
<trip id="256" depart="512" from="1_3to1_2" to="1_2to1_3" type="bus"/>
<trip id="257" depart="514" from="1_3to1_2" to="1_2to0_2" type="passenger"/>
<trip id="258" depart="516" from="2_0to2_1" to="2_1to2_0" type="truck"/>
<trip id="259" depart="518" from="0_2to1_2" to="2_2to3_2" type="motorcycle"/>
<trip id="260" depart="520" from="3_2to2_2" to="1_2to0_2" type="truck"/>
<trip id="261" depart="522" from="0_2to1_2" to="2_2to2_3" type="truck"/>
<trip id="262" depart="524" from="0_1to1_1" to="2_2to2_3" type="motorcycle"/>
<trip id="263" depart="526" from="3_2to2_2" to="1_1to1_0" type="truck"/>
<trip id="264" depart="528" from="0_2to1_2" to="1_2to0_2" type="truck"/>
<trip id="265" depart="530" from="1_0to1_1" to="2_2to3_2" type="truck"/>
<trip id="266" depart="532" from="3_1to2_1" to="1_2to1_3" type="truck"/>
<trip id="267" depart="534" from="3_1to2_1" to="2_1to2_0" type="truck"/>
<trip id="268" depart="536" from="0_2to1_2" to="2_2to3_2" type="truck"/>
<trip id="269" depart="538" from="0_2to1_2" to="2_1to3_1" type="bus"/>
<trip id="270" depart="540" from="1_0to1_1" to="1_1to0_1" type="truck"/>
<trip id="271" depart="542" from="3_2to2_2" to="2_2to3_2" type="truck"/>
<trip id="272" depart="544" from="1_3to1_2" to="1_2to1_3" type="truck"/>
<trip id="273" depart="546" from="1_0to1_1" to="2_2to3_2" type="passenger"/>
<trip id="274" depart="548" from="2_3to2_2" to="2_1to3_1" type="bus"/>
<trip id="275" depart="550" from="3_2to2_2" to="1_1to1_0" type="truck"/>
<trip id="276" depart="552" from="2_0to2_1" to="2_1to2_0" type="truck"/>
<trip id="277" depart="554" from="3_1to2_1" to="1_2to1_3" type="passenger"/>
<trip id="278" depart="556" from="0_2to1_2" to="2_2to2_3" type="bus"/>
<trip id="279" depart="558" from="0_2to1_2" to="1_2to0_2" type="bus"/>
<trip id="280" depart="560" from="0_2to1_2" to="1_2to1_3" type="truck"/>
<trip id="281" depart="562" from="2_3to2_2" to="2_1to2_0" type="bus"/>
<trip id="282" depart="564" from="0_2to1_2" to="2_2to2_3" type="truck"/>
<trip id="283" depart="566" from="0_2to1_2" to="2_2to3_2" type="passenger"/>
<trip id="284" depart="568" from="0_1to1_1" to="2_1to3_1" type="passenger"/>
<trip id="285" depart="570" from="1_3to1_2" to="2_2to3_2" type="bus"/>
<trip id="286" depart="572" from="1_3to1_2" to="1_1to1_0" type="passenger"/>
<trip id="287" depart="574" from="3_2to2_2" to="1_1to1_0" type="passenger"/>
<trip id="288" depart="576" from="0_1to1_1" to="1_2to0_2" type="truck"/>
<trip id="289" depart="578" from="1_3to1_2" to="1_2to0_2" type="truck"/>
<trip id="290" depart="580" from="3_1to2_1" to="1_1to0_1" type="bus"/>
<trip id="291" depart="582" from="3_1to2_1" to="2_2to2_3" type="passenger"/>
<trip id="292" depart="584" from="3_2to2_2" to="2_1to2_0" type="passenger"/>
<trip id="293" depart="586" from="1_0to1_1" to="1_1to0_1" type="bus"/>
<trip id="294" depart="588" from="0_1to1_1" to="1_2to0_2" type="passenger"/>
<trip id="295" depart="590" from="0_1to1_1" to="1_1to1_0" type="passenger"/>
<trip id="296" depart="592" from="2_3to2_2" to="2_1to3_1" type="truck"/>
<trip id="297" depart="594" from="3_1to2_1" to="1_2to1_3" type="truck"/>
<trip id="298" depart="596" from="0_1to1_1" to="1_2to1_3" type="truck"/>
<trip id="299" depart="598" from="3_2to2_2" to="1_2to0_2" type="motorcycle"/>
<trip id="300" depart="600" from="0_2to1_2" to="1_1to0_1" type="bus"/>
<trip id="301" depart="602" from="2_0to2_1" to="2_1to2_0" type="truck"/>
<trip id="302" depart="604" from="0_1to1_1" to="2_2to3_2" type="truck"/>
<trip id="303" depart="606" from="3_1to2_1" to="1_1to1_0" type="truck"/>
<trip id="304" depart="608" from="1_0to1_1" to="1_1to1_0" type="passenger"/>
<trip id="305" depart="610" from="1_3to1_2" to="1_1to0_1" type="passenger"/>
<trip id="306" depart="612" from="3_2to2_2" to="2_2to3_2" type="motorcycle"/>
<trip id="307" depart="614" from="1_0to1_1" to="1_1to1_0" type="bus"/>
<trip id="308" depart="616" from="2_3to2_2" to="1_1to1_0" type="bus"/>
<trip id="309" depart="618" from="0_1to1_1" to="2_1to2_0" type="passenger"/>
<trip id="310" depart="620" from="1_3to1_2" to="2_2to2_3" type="passenger"/>
<trip id="311" depart="622" from="1_0to1_1" to="1_1to1_0" type="motorcycle"/>
<trip id="312" depart="624" from="3_2to2_2" to="1_1to0_1" type="motorcycle"/>
<trip id="313" depart="626" from="1_0to1_1" to="1_1to0_1" type="truck"/>
<trip id="314" depart="628" from="2_3to2_2" to="2_2to2_3" type="passenger"/>
<trip id="315" depart="630" from="1_0to1_1" to="1_2to0_2" type="passenger"/>
<trip id="316" depart="632" from="0_1to1_1" to="2_1to2_0" type="passenger"/>
<trip id="317" depart="634" from="3_1to2_1" to="2_1to2_0" type="passenger"/>
<trip id="318" depart="636" from="3_2to2_2" to="1_1to1_0" type="truck"/>
<trip id="319" depart="638" from="0_1to1_1" to="2_1to3_1" type="motorcycle"/>
<trip id="320" depart="640" from="2_3to2_2" to="2_1to2_0" type="truck"/>
<trip id="321" depart="642" from="2_3to2_2" to="1_2to1_3" type="passenger"/>
<trip id="322" depart="644" from="3_1to2_1" to="2_2to3_2" type="bus"/>
<trip id="323" depart="646" from="2_0to2_1" to="2_2to2_3" type="passenger"/>
<trip id="324" depart="648" from="0_1to1_1" to="2_2to3_2" type="truck"/>
<trip id="325" depart="650" from="3_1to2_1" to="1_2to0_2" type="motorcycle"/>
<trip id="326" depart="652" from="1_3to1_2" to="2_2to3_2" type="passenger"/>
<trip id="327" depart="654" from="3_1to2_1" to="1_2to1_3" type="bus"/>
<trip id="328" depart="656" from="0_1to1_1" to="2_2to3_2" type="motorcycle"/>
<trip id="329" depart="658" from="0_1to1_1" to="1_2to0_2" type="truck"/>
<trip id="330" depart="660" from="2_0to2_1" to="2_2to3_2" type="bus"/>
<trip id="331" depart="662" from="2_3to2_2" to="1_1to0_1" type="passenger"/>
<trip id="332" depart="664" from="2_0to2_1" to="2_2to2_3" type="passenger"/>
<trip id="333" depart="666" from="3_1to2_1" to="2_2to3_2" type="bus"/>
<trip id="334" depart="668" from="3_2to2_2" to="1_1to1_0" type="passenger"/>
<trip id="335" depart="670" from="1_0to1_1" to="1_1to0_1" type="bus"/>
<trip id="336" depart="672" from="1_0to1_1" to="1_1to0_1" type="bus"/>
<trip id="337" depart="674" from="0_2to1_2" to="2_2to2_3" type="passenger"/>
<trip id="338" depart="676" from="2_0to2_1" to="1_1to0_1" type="bus"/>
<trip id="339" depart="678" from="2_3to2_2" to="2_1to3_1" type="truck"/>
<trip id="340" depart="680" from="3_2to2_2" to="2_1to3_1" type="motorcycle"/>
<trip id="341" depart="682" from="0_1to1_1" to="2_1to2_0" type="passenger"/>
<trip id="342" depart="684" from="1_0to1_1" to="1_1to0_1" type="passenger"/>
<trip id="343" depart="686" from="3_1to2_1" to="1_2to1_3" type="motorcycle"/>
<trip id="344" depart="688" from="0_2to1_2" to="2_2to2_3" type="passenger"/>
<trip id="345" depart="690" from="2_0to2_1" to="1_1to0_1" type="truck"/>
<trip id="346" depart="692" from="2_0to2_1" to="1_2to0_2" type="truck"/>
<trip id="347" depart="694" from="0_2to1_2" to="2_2to3_2" type="truck"/>
<trip id="348" depart="696" from="2_3to2_2" to="2_1to3_1" type="bus"/>
<trip id="349" depart="698" from="0_1to1_1" to="2_2to3_2" type="truck"/>
<trip id="350" depart="700" from="2_3to2_2" to="1_2to1_3" type="motorcycle"/>
<trip id="351" depart="702" from="1_0to1_1" to="1_2to0_2" type="passenger"/>
<trip id="352" depart="704" from="0_2to1_2" to="2_1to3_1" type="bus"/>
<trip id="353" depart="706" from="0_2to1_2" to="2_2to2_3" type="motorcycle"/>
<trip id="354" depart="708" from="0_2to1_2" to="1_1to1_0" type="motorcycle"/>
<trip id="355" depart="710" from="1_0to1_1" to="2_1to2_0" type="truck"/>
<trip id="356" depart="712" from="0_1to1_1" to="1_1to0_1" type="passenger"/>
<trip id="357" depart="714" from="1_3to1_2" to="2_1to2_0" type="passenger"/>
<trip id="358" depart="716" from="2_3to2_2" to="1_2to0_2" type="passenger"/>
<trip id="359" depart="718" from="3_1to2_1" to="1_2to1_3" type="passenger"/>
<trip id="360" depart="720" from="3_2to2_2" to="2_1to3_1" type="bus"/>
<trip id="361" depart="722" from="3_1to2_1" to="2_2to3_2" type="bus"/>
<trip id="362" depart="724" from="0_2to1_2" to="1_1to1_0" type="passenger"/>
<trip id="363" depart="726" from="2_3to2_2" to="2_1to3_1" type="bus"/>
<trip id="364" depart="728" from="0_2to1_2" to="2_1to2_0" type="passenger"/>
<trip id="365" depart="730" from="0_1to1_1" to="2_2to2_3" type="bus"/>
<trip id="366" depart="732" from="1_0to1_1" to="1_1to1_0" type="bus"/>
<trip id="367" depart="734" from="1_0to1_1" to="2_2to2_3" type="passenger"/>
<trip id="368" depart="736" from="2_0to2_1" to="1_1to1_0" type="passenger"/>
<trip id="369" depart="738" from="0_1to1_1" to="1_2to0_2" type="motorcycle"/>
<trip id="370" depart="740" from="0_1to1_1" to="2_2to3_2" type="bus"/>
<trip id="371" depart="742" from="1_3to1_2" to="1_2to0_2" type="motorcycle"/>
<trip id="372" depart="744" from="3_1to2_1" to="2_1to2_0" type="truck"/>
<trip id="373" depart="746" from="0_1to1_1" to="2_1to2_0" type="bus"/>
<trip id="374" depart="748" from="2_0to2_1" to="1_1to0_1" type="motorcycle"/>
<trip id="375" depart="750" from="1_3to1_2" to="2_2to2_3" type="truck"/>
<trip id="376" depart="752" from="1_3to1_2" to="1_1to1_0" type="passenger"/>
<trip id="377" depart="754" from="0_2to1_2" to="1_2to0_2" type="motorcycle"/>
<trip id="378" depart="756" from="0_2to1_2" to="1_1to0_1" type="truck"/>
<trip id="379" depart="758" from="2_0to2_1" to="1_1to0_1" type="passenger"/>
<trip id="380" depart="760" from="3_1to2_1" to="2_1to2_0" type="bus"/>
<trip id="381" depart="762" from="1_3to1_2" to="2_1to2_0" type="truck"/>
<trip id="382" depart="764" from="3_2to2_2" to="1_1to1_0" type="truck"/>
<trip id="383" depart="766" from="1_0to1_1" to="2_2to3_2" type="motorcycle"/>
<trip id="384" depart="768" from="0_1to1_1" to="2_1to3_1" type="bus"/>
<trip id="385" depart="770" from="3_2to2_2" to="2_2to2_3" type="motorcycle"/>
<trip id="386" depart="772" from="2_0to2_1" to="1_2to0_2" type="passenger"/>
<trip id="387" depart="774" from="3_2to2_2" to="2_1to3_1" type="motorcycle"/>
<trip id="388" depart="776" from="2_0to2_1" to="1_1to1_0" type="motorcycle"/>
<trip id="389" depart="778" from="3_1to2_1" to="1_1to1_0" type="truck"/>
<trip id="390" depart="780" from="2_3to2_2" to="2_2to3_2" type="truck"/>
<trip id="391" depart="782" from="2_0to2_1" to="2_2to2_3" type="passenger"/>
<trip id="392" depart="784" from="0_1to1_1" to="2_1to2_0" type="motorcycle"/>
<trip id="393" depart="786" from="2_0to2_1" to="1_2to1_3" type="bus"/>
<trip id="394" depart="788" from="3_1to2_1" to="1_2to0_2" type="motorcycle"/>
<trip id="395" depart="790" from="0_1to1_1" to="2_2to2_3" type="truck"/>
<trip id="396" depart="792" from="0_1to1_1" to="2_1to2_0" type="motorcycle"/>
<trip id="397" depart="794" from="1_0to1_1" to="2_1to2_0" type="bus"/>