<?xml version="1.0" encoding="UTF-8"?>

<!-- generated on 09/06/20 16:33:25 by Eclipse SUMO jtrrouter Version 1.6.0
<configuration xmlns:xsi="http://www.w3.org/2001/XMLSchema-instance" xsi:noNamespaceSchemaLocation="http://sumo.dlr.de/xsd/jtrrouterConfiguration.xsd">

    <input>
        <net-file value="sim.net.xml"/>
        <route-files value="sim.flow.xml"/>
        <turn-ratio-files value="sim.turns.xml"/>
    </input>

    <output>
        <output-file value="sim_flow.rou.xml"/>
    </output>

    <processing>
        <no-internal-links value="true"/>
    </processing>

</configuration>
-->

<routes xmlns:xsi="http://www.w3.org/2001/XMLSchema-instance" xsi:noNamespaceSchemaLocation="http://sumo.dlr.de/xsd/routes_file.xsd">
    <vehicle id="0.0" depart="0.00">
        <route edges="0_2to1_2 1_2to2_2 2_2to3_2"/>
    </vehicle>
    <vehicle id="1.0" depart="2.00">
        <route edges="0_1to1_1 1_1to1_0"/>
    </vehicle>
    <vehicle id="2.0" depart="4.00">
        <route edges="2_3to2_2 2_2to2_1 2_1to2_0"/>
    </vehicle>
    <vehicle id="3.0" depart="6.00">
        <route edges="3_2to2_2 2_2to1_2 1_2to0_2"/>
    </vehicle>
    <vehicle id="4.0" depart="8.00">
        <route edges="0_1to1_1 1_1to2_1 2_1to3_1"/>
    </vehicle>
    <vehicle id="5.0" depart="10.00">
        <route edges="0_2to1_2 1_2to2_2 2_2to2_1 2_1to2_0"/>
    </vehicle>
    <vehicle id="6.0" depart="12.00">
        <route edges="3_1to2_1 2_1to1_1 1_1to0_1"/>
    </vehicle>
    <vehicle id="7.0" depart="14.00">
        <route edges="0_2to1_2 1_2to2_2 2_2to3_2"/>
    </vehicle>
    <vehicle id="8.0" depart="16.00">
        <route edges="2_0to2_1 2_1to1_1 1_1to1_0"/>
    </vehicle>
    <vehicle id="9.0" depart="18.00">
        <route edges="0_1to1_1 1_1to2_1 2_1to3_1"/>
    </vehicle>
    <vehicle id="10.0" depart="20.00">
        <route edges="3_2to2_2 2_2to1_2 1_2to0_2"/>
    </vehicle>
    <vehicle id="11.0" depart="22.00">
        <route edges="1_0to1_1 1_1to1_2 1_2to1_3"/>
    </vehicle>
    <vehicle id="12.0" depart="24.00">
        <route edges="2_3to2_2 2_2to3_2"/>
    </vehicle>
    <vehicle id="13.0" depart="26.00">
        <route edges="0_2to1_2 1_2to2_2 2_2to3_2"/>
    </vehicle>
    <vehicle id="14.0" depart="28.00">
        <route edges="1_0to1_1 1_1to1_2 1_2to1_3"/>
    </vehicle>
    <vehicle id="15.0" depart="30.00">
        <route edges="2_3to2_2 2_2to2_1 2_1to1_1 1_1to0_1"/>
    </vehicle>
    <vehicle id="16.0" depart="32.00">
        <route edges="3_1to2_1 2_1to1_1 1_1to0_1"/>
    </vehicle>
    <vehicle id="17.0" depart="34.00">
        <route edges="2_0to2_1 2_1to3_1"/>
    </vehicle>
    <vehicle id="18.0" depart="36.00">
        <route edges="3_2to2_2 2_2to1_2 1_2to0_2"/>
    </vehicle>
    <vehicle id="19.0" depart="38.00">
        <route edges="3_1to2_1 2_1to1_1 1_1to0_1"/>
    </vehicle>
    <vehicle id="20.0" depart="40.00">
        <route edges="1_0to1_1 1_1to1_2 1_2to1_3"/>
    </vehicle>
    <vehicle id="21.0" depart="42.00">
        <route edges="3_2to2_2 2_2to2_3"/>
    </vehicle>
    <vehicle id="22.0" depart="44.00">
        <route edges="2_0to2_1 2_1to2_2 2_2to2_3"/>
    </vehicle>
    <vehicle id="23.0" depart="46.00">
        <route edges="1_3to1_2 1_2to1_1 1_1to1_0"/>
    </vehicle>
    <vehicle id="24.0" depart="48.00">
        <route edges="0_2to1_2 1_2to2_2 2_2to3_2"/>
    </vehicle>
    <vehicle id="25.0" depart="50.00">
        <route edges="1_3to1_2 1_2to0_2"/>
    </vehicle>
    <vehicle id="26.0" depart="52.00">
        <route edges="1_0to1_1 1_1to1_2 1_2to1_3"/>
    </vehicle>
    <vehicle id="27.0" depart="54.00">
        <route edges="3_1to2_1 2_1to1_1 1_1to0_1"/>
    </vehicle>
    <vehicle id="28.0" depart="56.00">
        <route edges="2_0to2_1 2_1to3_1"/>
    </vehicle>
    <vehicle id="29.0" depart="58.00">
        <route edges="2_3to2_2 2_2to3_2"/>
    </vehicle>
    <vehicle id="30.0" depart="60.00">
        <route edges="2_3to2_2 2_2to2_1 2_1to2_0"/>
    </vehicle>
    <vehicle id="31.0" depart="62.00">
        <route edges="3_2to2_2 2_2to1_2 1_2to0_2"/>
    </vehicle>
    <vehicle id="32.0" depart="64.00">
        <route edges="3_1to2_1 2_1to2_2 2_2to2_3"/>
    </vehicle>
    <vehicle id="33.0" depart="66.00">
        <route edges="0_1to1_1 1_1to2_1 2_1to2_2 2_2to1_2 1_2to0_2"/>
    </vehicle>
    <vehicle id="34.0" depart="68.00">
        <route edges="2_0to2_1 2_1to2_2 2_2to3_2"/>
    </vehicle>
    <vehicle id="35.0" depart="70.00">
        <route edges="3_2to2_2 2_2to1_2 1_2to0_2"/>
    </vehicle>
    <vehicle id="36.0" depart="72.00">
        <route edges="3_2to2_2 2_2to2_3"/>
    </vehicle>
    <vehicle id="37.0" depart="74.00">
        <route edges="2_3to2_2 2_2to2_1 2_1to2_0"/>
    </vehicle>
    <vehicle id="38.0" depart="76.00">
        <route edges="0_2to1_2 1_2to1_1 1_1to1_0"/>
    </vehicle>
    <vehicle id="39.0" depart="78.00">
        <route edges="0_1to1_1 1_1to2_1 2_1to2_2 2_2to1_2 1_2to0_2"/>
    </vehicle>
    <vehicle id="40.0" depart="80.00">
        <route edges="1_3to1_2 1_2to1_1 1_1to1_0"/>
    </vehicle>
    <vehicle id="41.0" depart="82.00">
        <route edges="1_3to1_2 1_2to1_1 1_1to1_0"/>
    </vehicle>
    <vehicle id="42.0" depart="84.00">
        <route edges="1_0to1_1 1_1to1_2 1_2to1_3"/>
    </vehicle>
    <vehicle id="43.0" depart="86.00">
        <route edges="1_3to1_2 1_2to1_1 1_1to1_0"/>
    </vehicle>
    <vehicle id="44.0" depart="88.00">
        <route edges="3_2to2_2 2_2to1_2 1_2to1_1 1_1to1_0"/>
    </vehicle>
    <vehicle id="45.0" depart="90.00">
        <route edges="0_2to1_2 1_2to2_2 2_2to3_2"/>
    </vehicle>
    <vehicle id="46.0" depart="92.00">
        <route edges="0_2to1_2 1_2to2_2 2_2to2_1 2_1to2_0"/>
    </vehicle>
    <vehicle id="47.0" depart="94.00">
        <route edges="3_2to2_2 2_2to1_2 1_2to1_1 1_1to1_0"/>
    </vehicle>
    <vehicle id="48.0" depart="96.00">
        <route edges="1_0to1_1 1_1to2_1 2_1to3_1"/>
    </vehicle>
    <vehicle id="49.0" depart="98.00">
        <route edges="0_1to1_1 1_1to2_1 2_1to3_1"/>
    </vehicle>
    <vehicle id="50.0" depart="100.00">
        <route edges="3_1to2_1 2_1to1_1 1_1to1_0"/>
    </vehicle>
    <vehicle id="51.0" depart="102.00">
        <route edges="1_3to1_2 1_2to1_1 1_1to2_1 2_1to3_1"/>
    </vehicle>
    <vehicle id="52.0" depart="104.00">
        <route edges="0_1to1_1 1_1to2_1 2_1to3_1"/>
    </vehicle>
    <vehicle id="53.0" depart="106.00">
        <route edges="1_3to1_2 1_2to1_1 1_1to1_0"/>
    </vehicle>
    <vehicle id="54.0" depart="108.00">
        <route edges="1_3to1_2 1_2to1_1 1_1to1_0"/>
    </vehicle>
    <vehicle id="55.0" depart="110.00">
        <route edges="0_1to1_1 1_1to2_1 2_1to3_1"/>
    </vehicle>
    <vehicle id="56.0" depart="112.00">
        <route edges="2_0to2_1 2_1to2_2 2_2to2_3"/>
    </vehicle>
    <vehicle id="57.0" depart="114.00">
        <route edges="3_1to2_1 2_1to1_1 1_1to0_1"/>
    </vehicle>
    <vehicle id="58.0" depart="116.00">
        <route edges="2_0to2_1 2_1to2_2 2_2to2_3"/>
    </vehicle>
    <vehicle id="59.0" depart="118.00">
        <route edges="3_1to2_1 2_1to1_1 1_1to0_1"/>
    </vehicle>
    <vehicle id="60.0" depart="120.00">
        <route edges="2_3to2_2 2_2to2_1 2_1to2_0"/>
    </vehicle>
    <vehicle id="61.0" depart="122.00">
        <route edges="1_0to1_1 1_1to2_1 2_1to3_1"/>
    </vehicle>
    <vehicle id="62.0" depart="124.00">
        <route edges="2_3to2_2 2_2to2_1 2_1to3_1"/>
    </vehicle>
    <vehicle id="63.0" depart="126.00">
        <route edges="1_0to1_1 1_1to1_2 1_2to1_3"/>
    </vehicle>
    <vehicle id="64.0" depart="128.00">
        <route edges="3_1to2_1 2_1to1_1 1_1to0_1"/>
    </vehicle>
    <vehicle id="65.0" depart="130.00">
        <route edges="2_0to2_1 2_1to2_2 2_2to2_3"/>
    </vehicle>
    <vehicle id="66.0" depart="132.00">
        <route edges="2_3to2_2 2_2to2_1 2_1to2_0"/>
    </vehicle>
    <vehicle id="67.0" depart="134.00">
        <route edges="3_1to2_1 2_1to1_1 1_1to0_1"/>
    </vehicle>
    <vehicle id="68.0" depart="136.00">
        <route edges="3_2to2_2 2_2to2_1 2_1to2_0"/>
    </vehicle>
    <vehicle id="69.0" depart="138.00">
        <route edges="0_2to1_2 1_2to2_2 2_2to3_2"/>
    </vehicle>
    <vehicle id="70.0" depart="140.00">
        <route edges="0_2to1_2 1_2to2_2 2_2to2_1 2_1to3_1"/>
    </vehicle>
    <vehicle id="71.0" depart="142.00">
        <route edges="1_0to1_1 1_1to1_2 1_2to1_3"/>
    </vehicle>
    <vehicle id="72.0" depart="144.00">
        <route edges="1_3to1_2 1_2to2_2 2_2to2_3"/>
    </vehicle>
    <vehicle id="73.0" depart="146.00">
        <route edges="2_3to2_2 2_2to2_1 2_1to2_0"/>
    </vehicle>
    <vehicle id="74.0" depart="148.00">
        <route edges="0_2to1_2 1_2to2_2 2_2to3_2"/>
    </vehicle>
    <vehicle id="75.0" depart="150.00">
        <route edges="1_0to1_1 1_1to0_1"/>
    </vehicle>
    <vehicle id="76.0" depart="152.00">
        <route edges="1_0to1_1 1_1to1_2 1_2to2_2 2_2to2_1 2_1to2_0"/>
    </vehicle>
    <vehicle id="77.0" depart="154.00">
        <route edges="2_3to2_2 2_2to3_2"/>
    </vehicle>
    <vehicle id="78.0" depart="156.00">
        <route edges="3_2to2_2 2_2to1_2 1_2to0_2"/>
    </vehicle>
    <vehicle id="79.0" depart="158.00">
        <route edges="0_1to1_1 1_1to2_1 2_1to3_1"/>
    </vehicle>
    <vehicle id="80.0" depart="160.00">
        <route edges="1_3to1_2 1_2to1_1 1_1to2_1 2_1to3_1"/>
    </vehicle>
    <vehicle id="81.0" depart="162.00">
        <route edges="0_2to1_2 1_2to2_2 2_2to3_2"/>
    </vehicle>
    <vehicle id="82.0" depart="164.00">
        <route edges="2_3to2_2 2_2to2_1 2_1to2_0"/>
    </vehicle>
    <vehicle id="83.0" depart="166.00">
        <route edges="1_0to1_1 1_1to1_2 1_2to1_3"/>
    </vehicle>
    <vehicle id="84.0" depart="168.00">
        <route edges="2_3to2_2 2_2to2_1 2_1to2_0"/>
    </vehicle>
    <vehicle id="85.0" depart="170.00">
        <route edges="0_1to1_1 1_1to2_1 2_1to3_1"/>
    </vehicle>
    <vehicle id="86.0" depart="172.00">
        <route edges="0_2to1_2 1_2to2_2 2_2to3_2"/>
    </vehicle>
    <vehicle id="87.0" depart="174.00">
        <route edges="3_2to2_2 2_2to2_1 2_1to2_0"/>
    </vehicle>
    <vehicle id="88.0" depart="176.00">
        <route edges="1_3to1_2 1_2to1_1 1_1to1_0"/>
    </vehicle>
    <vehicle id="89.0" depart="178.00">
        <route edges="0_2to1_2 1_2to2_2 2_2to2_3"/>
    </vehicle>
    <vehicle id="90.0" depart="180.00">
        <route edges="3_2to2_2 2_2to1_2 1_2to0_2"/>
    </vehicle>
    <vehicle id="91.0" depart="182.00">
        <route edges="3_2to2_2 2_2to1_2 1_2to0_2"/>
    </vehicle>
    <vehicle id="92.0" depart="184.00">
        <route edges="2_3to2_2 2_2to3_2"/>
    </vehicle>
    <vehicle id="93.0" depart="186.00">
        <route edges="3_1to2_1 2_1to1_1 1_1to0_1"/>
    </vehicle>
    <vehicle id="94.0" depart="188.00">
        <route edges="1_3to1_2 1_2to1_1 1_1to1_0"/>
    </vehicle>
    <vehicle id="95.0" depart="190.00">
        <route edges="3_1to2_1 2_1to1_1 1_1to0_1"/>
    </vehicle>
    <vehicle id="96.0" depart="192.00">
        <route edges="0_1to1_1 1_1to2_1 2_1to3_1"/>
    </vehicle>
    <vehicle id="97.0" depart="194.00">
        <route edges="1_3to1_2 1_2to2_2 2_2to3_2"/>
    </vehicle>
    <vehicle id="98.0" depart="196.00">
        <route edges="3_2to2_2 2_2to1_2 1_2to0_2"/>
    </vehicle>
    <vehicle id="99.0" depart="198.00">
        <route edges="2_3to2_2 2_2to1_2 1_2to0_2"/>
    </vehicle>
    <vehicle id="100.0" depart="200.00">
        <route edges="0_1to1_1 1_1to1_0"/>
    </vehicle>
    <vehicle id="101.0" depart="202.00">
        <route edges="0_1to1_1 1_1to2_1 2_1to3_1"/>
    </vehicle>
    <vehicle id="102.0" depart="204.00">
        <route edges="2_0to2_1 2_1to2_2 2_2to2_3"/>
    </vehicle>
    <vehicle id="103.0" depart="206.00">
        <route edges="3_1to2_1 2_1to1_1 1_1to0_1"/>
    </vehicle>
    <vehicle id="104.0" depart="208.00">
        <route edges="1_0to1_1 1_1to1_2 1_2to0_2"/>
    </vehicle>
    <vehicle id="105.0" depart="210.00">
        <route edges="3_2to2_2 2_2to1_2 1_2to0_2"/>
    </vehicle>
    <vehicle id="106.0" depart="212.00">
        <route edges="2_3to2_2 2_2to2_1 2_1to2_0"/>
    </vehicle>
    <vehicle id="107.0" depart="214.00">
        <route edges="3_2to2_2 2_2to1_2 1_2to1_3"/>
    </vehicle>
    <vehicle id="108.0" depart="216.00">
        <route edges="0_2to1_2 1_2to2_2 2_2to2_3"/>
    </vehicle>
    <vehicle id="109.0" depart="218.00">
        <route edges="2_3to2_2 2_2to2_1 2_1to1_1 1_1to0_1"/>
    </vehicle>
    <vehicle id="110.0" depart="220.00">
        <route edges="2_0to2_1 2_1to2_2 2_2to2_3"/>
    </vehicle>
    <vehicle id="111.0" depart="222.00">
        <route edges="1_3to1_2 1_2to2_2 2_2to3_2"/>
    </vehicle>
    <vehicle id="112.0" depart="224.00">
        <route edges="0_1to1_1 1_1to2_1 2_1to3_1"/>
    </vehicle>
    <vehicle id="113.0" depart="226.00">
        <route edges="0_1to1_1 1_1to2_1 2_1to2_2 2_2to2_3"/>
    </vehicle>
    <vehicle id="114.0" depart="228.00">
        <route edges="1_3to1_2 1_2to1_1 1_1to1_0"/>
    </vehicle>
    <vehicle id="115.0" depart="230.00">
        <route edges="1_0to1_1 1_1to1_2 1_2to1_3"/>
    </vehicle>
    <vehicle id="116.0" depart="232.00">
        <route edges="3_2to2_2 2_2to2_1 2_1to2_0"/>
    </vehicle>
    <vehicle id="117.0" depart="234.00">
        <route edges="3_2to2_2 2_2to2_3"/>
    </vehicle>
    <vehicle id="118.0" depart="236.00">
        <route edges="0_2to1_2 1_2to2_2 2_2to2_1 2_1to2_0"/>
    </vehicle>
    <vehicle id="119.0" depart="238.00">
        <route edges="1_0to1_1 1_1to1_2 1_2to0_2"/>
    </vehicle>
    <vehicle id="120.0" depart="240.00">
        <route edges="2_3to2_2 2_2to1_2 1_2to0_2"/>
    </vehicle>
    <vehicle id="121.0" depart="242.00">
        <route edges="2_0to2_1 2_1to3_1"/>
    </vehicle>
    <vehicle id="122.0" depart="244.00">
        <route edges="3_1to2_1 2_1to1_1 1_1to0_1"/>
    </vehicle>
    <vehicle id="123.0" depart="246.00">
        <route edges="0_2to1_2 1_2to2_2 2_2to2_1 2_1to2_0"/>
    </vehicle>
    <vehicle id="124.0" depart="248.00">
        <route edges="1_0to1_1 1_1to1_2 1_2to1_3"/>
    </vehicle>
    <vehicle id="125.0" depart="250.00">
        <route edges="0_2to1_2 1_2to2_2 2_2to3_2"/>
    </vehicle>
    <vehicle id="126.0" depart="252.00">
        <route edges="2_0to2_1 2_1to2_2 2_2to2_3"/>
    </vehicle>
    <vehicle id="127.0" depart="254.00">
        <route edges="3_1to2_1 2_1to1_1 1_1to0_1"/>
    </vehicle>
    <vehicle id="128.0" depart="256.00">
        <route edges="2_3to2_2 2_2to2_1 2_1to2_0"/>
    </vehicle>
    <vehicle id="129.0" depart="258.00">
        <route edges="3_1to2_1 2_1to1_1 1_1to0_1"/>
    </vehicle>
    <vehicle id="130.0" depart="260.00">
        <route edges="0_2to1_2 1_2to2_2 2_2to3_2"/>
    </vehicle>
    <vehicle id="131.0" depart="262.00">
        <route edges="3_2to2_2 2_2to1_2 1_2to0_2"/>
    </vehicle>
    <vehicle id="132.0" depart="264.00">
        <route edges="3_1to2_1 2_1to2_2 2_2to2_3"/>
    </vehicle>
    <vehicle id="133.0" depart="266.00">
        <route edges="3_2to2_2 2_2to1_2 1_2to0_2"/>
    </vehicle>
    <vehicle id="134.0" depart="268.00">
        <route edges="0_1to1_1 1_1to2_1 2_1to3_1"/>
    </vehicle>
    <vehicle id="135.0" depart="270.00">
        <route edges="3_2to2_2 2_2to1_2 1_2to0_2"/>
    </vehicle>
    <vehicle id="136.0" depart="272.00">
        <route edges="2_3to2_2 2_2to3_2"/>
    </vehicle>
    <vehicle id="137.0" depart="274.00">
        <route edges="3_1to2_1 2_1to1_1 1_1to0_1"/>
    </vehicle>
    <vehicle id="138.0" depart="276.00">
        <route edges="0_2to1_2 1_2to2_2 2_2to2_1 2_1to2_0"/>
    </vehicle>
    <vehicle id="139.0" depart="278.00">
        <route edges="3_1to2_1 2_1to1_1 1_1to0_1"/>
    </vehicle>
    <vehicle id="140.0" depart="280.00">
        <route edges="0_2to1_2 1_2to1_3"/>
    </vehicle>
    <vehicle id="141.0" depart="282.00">
        <route edges="3_1to2_1 2_1to1_1 1_1to1_0"/>
    </vehicle>
    <vehicle id="142.0" depart="284.00">
        <route edges="1_0to1_1 1_1to1_2 1_2to2_2 2_2to3_2"/>
    </vehicle>
    <vehicle id="143.0" depart="286.00">
        <route edges="3_2to2_2 2_2to2_1 2_1to2_0"/>
    </vehicle>
    <vehicle id="144.0" depart="288.00">
        <route edges="2_3to2_2 2_2to2_1 2_1to2_0"/>
    </vehicle>
    <vehicle id="145.0" depart="290.00">
        <route edges="1_0to1_1 1_1to2_1 2_1to3_1"/>
    </vehicle>
    <vehicle id="146.0" depart="292.00">
        <route edges="3_1to2_1 2_1to1_1 1_1to0_1"/>
    </vehicle>
    <vehicle id="147.0" depart="294.00">
        <route edges="2_3to2_2 2_2to2_1 2_1to3_1"/>
    </vehicle>
    <vehicle id="148.0" depart="296.00">
        <route edges="2_3to2_2 2_2to3_2"/>
    </vehicle>
    <vehicle id="149.0" depart="298.00">
        <route edges="2_0to2_1 2_1to2_2 2_2to2_3"/>
    </vehicle>
    <vehicle id="150.0" depart="300.00">
        <route edges="3_2to2_2 2_2to1_2 1_2to0_2"/>
    </vehicle>
    <vehicle id="151.0" depart="302.00">
        <route edges="1_0to1_1 1_1to2_1 2_1to3_1"/>
    </vehicle>
    <vehicle id="152.0" depart="304.00">
        <route edges="2_3to2_2 2_2to2_1 2_1to1_1 1_1to1_0"/>
    </vehicle>
    <vehicle id="153.0" depart="306.00">
        <route edges="3_2to2_2 2_2to1_2 1_2to0_2"/>
    </vehicle>
    <vehicle id="154.0" depart="308.00">
        <route edges="1_0to1_1 1_1to2_1 2_1to3_1"/>
    </vehicle>
    <vehicle id="155.0" depart="310.00">
        <route edges="3_1to2_1 2_1to1_1 1_1to0_1"/>
    </vehicle>
    <vehicle id="156.0" depart="312.00">
        <route edges="0_2to1_2 1_2to1_1 1_1to1_0"/>
    </vehicle>
    <vehicle id="157.0" depart="314.00">
        <route edges="0_2to1_2 1_2to1_1 1_1to1_0"/>
    </vehicle>
    <vehicle id="158.0" depart="316.00">
        <route edges="0_1to1_1 1_1to2_1 2_1to3_1"/>
    </vehicle>
    <vehicle id="159.0" depart="318.00">
        <route edges="2_0to2_1 2_1to2_2 2_2to2_3"/>
    </vehicle>
    <vehicle id="160.0" depart="320.00">
        <route edges="1_0to1_1 1_1to1_2 1_2to1_3"/>
    </vehicle>
    <vehicle id="161.0" depart="322.00">
        <route edges="0_1to1_1 1_1to2_1 2_1to3_1"/>
    </vehicle>
    <vehicle id="162.0" depart="324.00">
        <route edges="3_2to2_2 2_2to1_2 1_2to0_2"/>
    </vehicle>
    <vehicle id="163.0" depart="326.00">
        <route edges="0_2to1_2 1_2to2_2 2_2to2_3"/>
    </vehicle>
    <vehicle id="164.0" depart="328.00">
        <route edges="0_1to1_1 1_1to2_1 2_1to3_1"/>
    </vehicle>
    <vehicle id="165.0" depart="330.00">
        <route edges="2_0to2_1 2_1to2_2 2_2to1_2 1_2to0_2"/>
    </vehicle>
    <vehicle id="166.0" depart="332.00">
        <route edges="1_0to1_1 1_1to1_2 1_2to1_3"/>
    </vehicle>
    <vehicle id="167.0" depart="334.00">
        <route edges="0_1to1_1 1_1to2_1 2_1to3_1"/>
    </vehicle>
    <vehicle id="168.0" depart="336.00">
        <route edges="3_1to2_1 2_1to2_2 2_2to1_2 1_2to1_1 1_1to1_0"/>
    </vehicle>
    <vehicle id="169.0" depart="338.00">
        <route edges="0_2to1_2 1_2to1_3"/>
    </vehicle>
    <vehicle id="170.0" depart="340.00">
        <route edges="3_2to2_2 2_2to1_2 1_2to0_2"/>
    </vehicle>
    <vehicle id="171.0" depart="342.00">
        <route edges="3_1to2_1 2_1to2_0"/>
    </vehicle>
    <vehicle id="172.0" depart="344.00">
        <route edges="0_1to1_1 1_1to2_1 2_1to3_1"/>
    </vehicle>
    <vehicle id="173.0" depart="346.00">
        <route edges="0_1to1_1 1_1to2_1 2_1to3_1"/>
    </vehicle>
    <vehicle id="174.0" depart="348.00">
        <route edges="3_1to2_1 2_1to2_2 2_2to3_2"/>
    </vehicle>
    <vehicle id="175.0" depart="350.00">
        <route edges="1_0to1_1 1_1to1_2 1_2to1_3"/>
    </vehicle>
    <vehicle id="176.0" depart="352.00">
        <route edges="2_0to2_1 2_1to3_1"/>
    </vehicle>
    <vehicle id="177.0" depart="354.00">
        <route edges="3_2to2_2 2_2to1_2 1_2to0_2"/>
    </vehicle>
    <vehicle id="178.0" depart="356.00">
        <route edges="2_0to2_1 2_1to2_2 2_2to1_2 1_2to0_2"/>
    </vehicle>
    <vehicle id="179.0" depart="358.00">
        <route edges="0_2to1_2 1_2to2_2 2_2to3_2"/>
    </vehicle>
    <vehicle id="180.0" depart="360.00">
        <route edges="2_0to2_1 2_1to2_2 2_2to2_3"/>
    </vehicle>
    <vehicle id="181.0" depart="362.00">
        <route edges="0_2to1_2 1_2to1_3"/>
    </vehicle>
    <vehicle id="182.0" depart="364.00">
        <route edges="3_1to2_1 2_1to1_1 1_1to0_1"/>
    </vehicle>
    <vehicle id="183.0" depart="366.00">
        <route edges="1_0to1_1 1_1to1_2 1_2to1_3"/>
    </vehicle>
    <vehicle id="184.0" depart="368.00">
        <route edges="0_1to1_1 1_1to2_1 2_1to2_0"/>
    </vehicle>
    <vehicle id="185.0" depart="370.00">
        <route edges="2_3to2_2 2_2to2_1 2_1to1_1 1_1to1_2 1_2to2_2 2_2to3_2"/>
    </vehicle>
    <vehicle id="186.0" depart="372.00">
        <route edges="3_2to2_2 2_2to1_2 1_2to0_2"/>
    </vehicle>
    <vehicle id="187.0" depart="374.00">
        <route edges="3_1to2_1 2_1to1_1 1_1to0_1"/>
    </vehicle>
    <vehicle id="188.0" depart="376.00">
        <route edges="2_0to2_1 2_1to2_2 2_2to2_3"/>
    </vehicle>
    <vehicle id="189.0" depart="378.00">
        <route edges="2_0to2_1 2_1to2_2 2_2to2_3"/>
    </vehicle>
    <vehicle id="190.0" depart="380.00">
        <route edges="1_0to1_1 1_1to1_2 1_2to1_3"/>
    </vehicle>
    <vehicle id="191.0" depart="382.00">
        <route edges="2_0to2_1 2_1to2_2 2_2to2_3"/>
    </vehicle>
    <vehicle id="192.0" depart="384.00">
        <route edges="2_0to2_1 2_1to2_2 2_2to2_3"/>
    </vehicle>
    <vehicle id="193.0" depart="386.00">
        <route edges="2_3to2_2 2_2to3_2"/>
    </vehicle>
    <vehicle id="194.0" depart="388.00">
        <route edges="2_0to2_1 2_1to1_1 1_1to0_1"/>
    </vehicle>
    <vehicle id="195.0" depart="390.00">
        <route edges="1_3to1_2 1_2to1_1 1_1to2_1 2_1to3_1"/>
    </vehicle>
    <vehicle id="196.0" depart="392.00">
        <route edges="3_1to2_1 2_1to1_1 1_1to0_1"/>
    </vehicle>
    <vehicle id="197.0" depart="394.00">
        <route edges="3_2to2_2 2_2to1_2 1_2to0_2"/>
    </vehicle>
    <vehicle id="198.0" depart="396.00">
        <route edges="1_0to1_1 1_1to1_2 1_2to1_3"/>
    </vehicle>
    <vehicle id="199.0" depart="398.00">
        <route edges="1_0to1_1 1_1to1_2 1_2to1_3"/>
    </vehicle>
    <vehicle id="200.0" depart="400.00">
        <route edges="2_0to2_1 2_1to2_2 2_2to2_3"/>
    </vehicle>
    <vehicle id="201.0" depart="402.00">
        <route edges="2_0to2_1 2_1to2_2 2_2to3_2"/>
    </vehicle>
    <vehicle id="202.0" depart="404.00">
        <route edges="1_3to1_2 1_2to1_1 1_1to2_1 2_1to3_1"/>
    </vehicle>
    <vehicle id="203.0" depart="406.00">
        <route edges="3_2to2_2 2_2to1_2 1_2to0_2"/>
    </vehicle>
    <vehicle id="204.0" depart="408.00">
        <route edges="0_1to1_1 1_1to2_1 2_1to3_1"/>
    </vehicle>
    <vehicle id="205.0" depart="410.00">
        <route edges="2_3to2_2 2_2to2_1 2_1to2_0"/>
    </vehicle>
    <vehicle id="206.0" depart="412.00">
        <route edges="3_2to2_2 2_2to2_3"/>
    </vehicle>
    <vehicle id="207.0" depart="414.00">
        <route edges="1_0to1_1 1_1to1_2 1_2to2_2 2_2to2_1 2_1to2_0"/>
    </vehicle>
    <vehicle id="208.0" depart="416.00">
        <route edges="1_0to1_1 1_1to1_2 1_2to1_3"/>
    </vehicle>
    <vehicle id="209.0" depart="418.00">
        <route edges="0_2to1_2 1_2to2_2 2_2to3_2"/>
    </vehicle>
    <vehicle id="210.0" depart="420.00">
        <route edges="2_0to2_1 2_1to2_2 2_2to2_3"/>
    </vehicle>
    <vehicle id="211.0" depart="422.00">
        <route edges="3_1to2_1 2_1to1_1 1_1to0_1"/>
    </vehicle>
    <vehicle id="212.0" depart="424.00">
        <route edges="3_2to2_2 2_2to1_2 1_2to0_2"/>
    </vehicle>
    <vehicle id="213.0" depart="426.00">
        <route edges="1_3to1_2 1_2to1_1 1_1to1_0"/>
    </vehicle>
    <vehicle id="214.0" depart="428.00">
        <route edges="0_1to1_1 1_1to2_1 2_1to3_1"/>
    </vehicle>
    <vehicle id="215.0" depart="430.00">
        <route edges="2_3to2_2 2_2to2_1 2_1to2_0"/>
    </vehicle>
    <vehicle id="216.0" depart="432.00">
        <route edges="1_0to1_1 1_1to1_2 1_2to1_3"/>
    </vehicle>
    <vehicle id="217.0" depart="434.00">
        <route edges="3_1to2_1 2_1to1_1 1_1to0_1"/>
    </vehicle>
    <vehicle id="218.0" depart="436.00">
        <route edges="3_2to2_2 2_2to1_2 1_2to0_2"/>
    </vehicle>
    <vehicle id="219.0" depart="438.00">
        <route edges="0_1to1_1 1_1to2_1 2_1to3_1"/>
    </vehicle>
    <vehicle id="220.0" depart="440.00">
        <route edges="3_1to2_1 2_1to1_1 1_1to0_1"/>
    </vehicle>
    <vehicle id="221.0" depart="442.00">
        <route edges="3_2to2_2 2_2to2_1 2_1to2_0"/>
    </vehicle>
    <vehicle id="222.0" depart="444.00">
        <route edges="2_3to2_2 2_2to2_1 2_1to2_0"/>
    </vehicle>
    <vehicle id="223.0" depart="446.00">
        <route edges="3_1to2_1 2_1to1_1 1_1to0_1"/>
    </vehicle>
    <vehicle id="224.0" depart="448.00">
        <route edges="1_3to1_2 1_2to1_1 1_1to1_0"/>
    </vehicle>
    <vehicle id="225.0" depart="450.00">
        <route edges="3_1to2_1 2_1to1_1 1_1to0_1"/>
    </vehicle>
    <vehicle id="226.0" depart="452.00">
        <route edges="0_2to1_2 1_2to2_2 2_2to2_3"/>
    </vehicle>
    <vehicle id="227.0" depart="454.00">
        <route edges="3_2to2_2 2_2to2_1 2_1to2_0"/>
    </vehicle>
    <vehicle id="228.0" depart="456.00">
        <route edges="1_3to1_2 1_2to0_2"/>
    </vehicle>
    <vehicle id="229.0" depart="458.00">
        <route edges="3_1to2_1 2_1to1_1 1_1to0_1"/>
    </vehicle>
    <vehicle id="230.0" depart="460.00">
        <route edges="1_3to1_2 1_2to2_2 2_2to3_2"/>
    </vehicle>
    <vehicle id="231.0" depart="462.00">
        <route edges="3_2to2_2 2_2to2_1 2_1to2_0"/>
    </vehicle>
    <vehicle id="232.0" depart="464.00">
        <route edges="1_0to1_1 1_1to2_1 2_1to2_0"/>
    </vehicle>
    <vehicle id="233.0" depart="466.00">
        <route edges="1_3to1_2 1_2to1_1 1_1to1_0"/>
    </vehicle>
    <vehicle id="234.0" depart="468.00">
        <route edges="2_3to2_2 2_2to2_1 2_1to3_1"/>
    </vehicle>
    <vehicle id="235.0" depart="470.00">
        <route edges="2_0to2_1 2_1to2_2 2_2to2_3"/>
    </vehicle>
    <vehicle id="236.0" depart="472.00">
        <route edges="0_2to1_2 1_2to2_2 2_2to2_1 2_1to2_0"/>
    </vehicle>
    <vehicle id="237.0" depart="474.00">
        <route edges="2_0to2_1 2_1to2_2 2_2to3_2"/>
    </vehicle>
    <vehicle id="238.0" depart="476.00">
        <route edges="1_0to1_1 1_1to1_2 1_2to1_3"/>
    </vehicle>
    <vehicle id="239.0" depart="478.00">
        <route edges="3_2to2_2 2_2to1_2 1_2to1_1 1_1to1_0"/>
    </vehicle>
    <vehicle id="240.0" depart="480.00">
        <route edges="2_0to2_1 2_1to2_2 2_2to2_3"/>
    </vehicle>
    <vehicle id="241.0" depart="482.00">
        <route edges="3_2to2_2 2_2to1_2 1_2to1_1 1_1to0_1"/>
    </vehicle>
    <vehicle id="242.0" depart="484.00">
        <route edges="3_2to2_2 2_2to1_2 1_2to0_2"/>
    </vehicle>
    <vehicle id="243.0" depart="486.00">
        <route edges="3_1to2_1 2_1to1_1 1_1to0_1"/>
    </vehicle>
    <vehicle id="244.0" depart="488.00">
        <route edges="2_3to2_2 2_2to2_1 2_1to3_1"/>
    </vehicle>
    <vehicle id="245.0" depart="490.00">
        <route edges="0_2to1_2 1_2to2_2 2_2to3_2"/>
    </vehicle>
    <vehicle id="246.0" depart="492.00">
        <route edges="2_0to2_1 2_1to2_2 2_2to2_3"/>
    </vehicle>
    <vehicle id="247.0" depart="494.00">
        <route edges="2_0to2_1 2_1to2_2 2_2to2_3"/>
    </vehicle>
    <vehicle id="248.0" depart="496.00">
        <route edges="1_3to1_2 1_2to1_1 1_1to1_0"/>
    </vehicle>
    <vehicle id="249.0" depart="498.00">
        <route edges="0_1to1_1 1_1to2_1 2_1to2_0"/>
    </vehicle>
    <vehicle id="250.0" depart="500.00">
        <route edges="2_0to2_1 2_1to2_2 2_2to2_3"/>
    </vehicle>
    <vehicle id="251.0" depart="502.00">
        <route edges="2_0to2_1 2_1to2_2 2_2to2_3"/>
    </vehicle>
    <vehicle id="252.0" depart="504.00">
        <route edges="2_0to2_1 2_1to2_2 2_2to2_3"/>
    </vehicle>
    <vehicle id="253.0" depart="506.00">
        <route edges="2_0to2_1 2_1to2_2 2_2to2_3"/>
    </vehicle>
    <vehicle id="254.0" depart="508.00">
        <route edges="3_2to2_2 2_2to1_2 1_2to0_2"/>
    </vehicle>
    <vehicle id="255.0" depart="510.00">
        <route edges="3_1to2_1 2_1to1_1 1_1to0_1"/>
    </vehicle>
    <vehicle id="256.0" depart="512.00">
        <route edges="2_0to2_1 2_1to2_2 2_2to3_2"/>
    </vehicle>
    <vehicle id="257.0" depart="514.00">
        <route edges="3_1to2_1 2_1to1_1 1_1to0_1"/>
    </vehicle>
    <vehicle id="258.0" depart="516.00">
        <route edges="3_1to2_1 2_1to1_1 1_1to0_1"/>
    </vehicle>
    <vehicle id="259.0" depart="518.00">
        <route edges="3_2to2_2 2_2to2_3"/>
    </vehicle>
    <vehicle id="260.0" depart="520.00">
        <route edges="0_1to1_1 1_1to2_1 2_1to3_1"/>
    </vehicle>
    <vehicle id="261.0" depart="522.00">
        <route edges="1_0to1_1 1_1to1_2 1_2to1_3"/>
    </vehicle>
    <vehicle id="262.0" depart="524.00">
        <route edges="2_3to2_2 2_2to2_1 2_1to2_0"/>
    </vehicle>
    <vehicle id="263.0" depart="526.00">
        <route edges="1_0to1_1 1_1to1_2 1_2to1_3"/>
    </vehicle>
    <vehicle id="264.0" depart="528.00">
        <route edges="3_2to2_2 2_2to2_1 2_1to1_1 1_1to0_1"/>
    </vehicle>
    <vehicle id="265.0" depart="530.00">
        <route edges="1_0to1_1 1_1to1_2 1_2to1_3"/>
    </vehicle>
    <vehicle id="266.0" depart="532.00">
        <route edges="2_3to2_2 2_2to2_1 2_1to2_0"/>
    </vehicle>
    <vehicle id="267.0" depart="534.00">
        <route edges="3_1to2_1 2_1to1_1 1_1to0_1"/>
    </vehicle>
    <vehicle id="268.0" depart="536.00">
        <route edges="1_0to1_1 1_1to1_2 1_2to1_3"/>
    </vehicle>
    <vehicle id="269.0" depart="538.00">
        <route edges="2_0to2_1 2_1to2_2 2_2to3_2"/>
    </vehicle>
    <vehicle id="270.0" depart="540.00">
        <route edges="2_3to2_2 2_2to2_1 2_1to2_0"/>
    </vehicle>
    <vehicle id="271.0" depart="542.00">